RW_708
     RDKit          2D

 33 37  0  0  0  0  0  0  0  0999 V2000
    3.3107   -4.7869    0.0000 N   0  0  0  0  0  0  0  0  0  0  0  0
    1.9297   -4.2014    0.0000 C   0  0  0  0  0  0  0  0  0  0  0  0
    0.5486   -3.6160    0.0000 C   0  0  0  0  0  0  0  0  0  0  0  0
   -0.6489   -4.5192    0.0000 C   0  0  0  0  0  0  0  0  0  0  0  0
   -2.0299   -3.9338    0.0000 C   0  0  0  0  0  0  0  0  0  0  0  0
   -2.2134   -2.4450    0.0000 C   0  0  0  0  0  0  0  0  0  0  0  0
   -1.0159   -1.5418    0.0000 C   0  0  0  0  0  0  0  0  0  0  0  0
    0.3652   -2.1272    0.0000 C   0  0  0  0  0  0  0  0  0  0  0  0
    1.5627   -1.2240    0.0000 C   0  0  0  0  0  0  0  0  0  0  0  0
    2.9437   -1.8094    0.0000 C   0  0  0  0  0  0  0  0  0  0  0  0
    4.1413   -0.9062    0.0000 C   0  0  0  0  0  0  0  0  0  0  0  0
    3.9578    0.5826    0.0000 C   0  0  0  0  0  0  0  0  0  0  0  0
    5.1553    1.4858    0.0000 N   0  0  0  0  0  0  0  0  0  0  0  0
    6.5363    0.9004    0.0000 C   0  0  0  0  0  0  0  0  0  0  0  0
    7.7339    1.8036    0.0000 C   0  0  0  0  0  0  0  0  0  0  0  0
    7.5504    3.2924    0.0000 N   0  0  0  0  0  0  0  0  0  0  0  0
    6.1694    3.8778    0.0000 C   0  0  0  0  0  0  0  0  0  0  0  0
    4.9718    2.9746    0.0000 C   0  0  0  0  0  0  0  0  0  0  0  0
    2.5768    1.1680    0.0000 C   0  0  0  0  0  0  0  0  0  0  0  0
    1.3792    0.2648    0.0000 C   0  0  0  0  0  0  0  0  0  0  0  0
   -1.5049   -0.1237    0.0000 C   0  0  0  0  0  0  0  0  0  0  0  0
   -0.6451    1.1054    0.0000 O   0  0  0  0  0  0  0  0  0  0  0  0
   -3.0046   -0.1506    0.0000 N   0  0  0  0  0  0  0  0  0  0  0  0
   -3.9079    1.0470    0.0000 C   0  0  0  0  0  0  0  0  0  0  0  0
   -3.3224    2.4280    0.0000 C   0  0  0  0  0  0  0  0  0  0  0  0
   -4.2257    3.6255    0.0000 C   0  0  0  0  0  0  0  0  0  0  0  0
   -5.7144    3.4421    0.0000 C   0  0  0  0  0  0  0  0  0  0  0  0
   -6.6177    4.6396    0.0000 O   0  0  0  0  0  0  0  0  0  0  0  0
   -6.2999    2.0610    0.0000 N   0  0  0  0  0  0  0  0  0  0  0  0
   -5.3966    0.8635    0.0000 C   0  0  0  0  0  0  0  0  0  0  0  0
   -5.9821   -0.5175    0.0000 O   0  0  0  0  0  0  0  0  0  0  0  0
   -3.4425   -1.5852    0.0000 C   0  0  0  0  0  0  0  0  0  0  0  0
   -4.8606   -2.0742    0.0000 O   0  0  0  0  0  0  0  0  0  0  0  0
  1  2  3  0
  2  3  1  0
  3  4  1  0
  4  5  2  0
  5  6  1  0
  6  7  2  0
  7  8  1  0
  8  9  1  0
  9 10  1  0
 10 11  2  0
 11 12  1  0
 12 13  1  0
 13 14  1  0
 14 15  1  0
 15 16  1  0
 16 17  1  0
 17 18  1  0
 12 19  2  0
 19 20  1  0
  7 21  1  0
 21 22  2  0
 21 23  1  0
 23 24  1  0
 24 25  1  0
 25 26  1  0
 26 27  1  0
 27 28  2  0
 27 29  1  0
 29 30  1  0
 30 31  2  0
 23 32  1  0
 32 33  2  0
  8  3  2  0
 20  9  2  0
 30 24  1  0
 32  6  1  0
 18 13  1  0
M  END
>  <Code>  (1) 
RW_708

>  <Molecular_Formula>  (1) 
C24H21N5O4

>  <MW>  (1) 
443.46

>  <CAS>  (1) 
-

>  <Purity>  (1) 
>=98% (HPLC)

>  <Quality>  (1) 
无菌; 无内毒素; 无核酸酶; 优先细胞培养级别 (sterile; endotoxin-free; nuclease-free; cell-culture grade preferred)

>  <InChIKey>  (1) 
HIEJYMRMWAEODO-UHFFFAOYSA-N

>  <Role>  (1) 
candidate

$$$$
RW_491
     RDKit          2D

 33 37  0  0  0  0  0  0  0  0999 V2000
    3.7578   -5.8497    0.0000 C   0  0  0  0  0  0  0  0  0  0  0  0
    3.7119   -4.3504    0.0000 O   0  0  0  0  0  0  0  0  0  0  0  0
    2.3905   -3.6405    0.0000 C   0  0  0  0  0  0  0  0  0  0  0  0
    1.1150   -4.4299    0.0000 C   0  0  0  0  0  0  0  0  0  0  0  0
   -0.2064   -3.7200    0.0000 C   0  0  0  0  0  0  0  0  0  0  0  0
   -0.2523   -2.2207    0.0000 C   0  0  0  0  0  0  0  0  0  0  0  0
   -1.5737   -1.5108    0.0000 C   0  0  0  0  0  0  0  0  0  0  0  0
   -1.6196   -0.0115    0.0000 C   0  0  0  0  0  0  0  0  0  0  0  0
   -2.9409    0.6984    0.0000 C   0  0  0  0  0  0  0  0  0  0  0  0
   -4.2164   -0.0910    0.0000 C   0  0  0  0  0  0  0  0  0  0  0  0
   -5.5378    0.6189    0.0000 N   0  0  0  0  0  0  0  0  0  0  0  0
   -5.5837    2.1182    0.0000 C   0  0  0  0  0  0  0  0  0  0  0  0
   -6.9051    2.8281    0.0000 C   0  0  0  0  0  0  0  0  0  0  0  0
   -8.1806    2.0387    0.0000 N   0  0  0  0  0  0  0  0  0  0  0  0
   -8.1347    0.5394    0.0000 C   0  0  0  0  0  0  0  0  0  0  0  0
   -6.8133   -0.1705    0.0000 C   0  0  0  0  0  0  0  0  0  0  0  0
   -4.1705   -1.5903    0.0000 C   0  0  0  0  0  0  0  0  0  0  0  0
   -2.8491   -2.3002    0.0000 C   0  0  0  0  0  0  0  0  0  0  0  0
    1.0232   -1.4313    0.0000 C   0  0  0  0  0  0  0  0  0  0  0  0
    2.3446   -2.1412    0.0000 C   0  0  0  0  0  0  0  0  0  0  0  0
    3.4281   -1.1038    0.0000 C   0  0  0  0  0  0  0  0  0  0  0  0
    4.9041   -1.3707    0.0000 O   0  0  0  0  0  0  0  0  0  0  0  0
    2.7763    0.2472    0.0000 N   0  0  0  0  0  0  0  0  0  0  0  0
    3.4862    1.5685    0.0000 C   0  0  0  0  0  0  0  0  0  0  0  0
    4.9855    1.6144    0.0000 C   0  0  0  0  0  0  0  0  0  0  0  0
    5.6954    2.9358    0.0000 C   0  0  0  0  0  0  0  0  0  0  0  0
    4.9060    4.2113    0.0000 C   0  0  0  0  0  0  0  0  0  0  0  0
    5.6159    5.5327    0.0000 O   0  0  0  0  0  0  0  0  0  0  0  0
    3.4067    4.1654    0.0000 N   0  0  0  0  0  0  0  0  0  0  0  0
    2.6968    2.8440    0.0000 C   0  0  0  0  0  0  0  0  0  0  0  0
    1.1975    2.7981    0.0000 O   0  0  0  0  0  0  0  0  0  0  0  0
    1.2900    0.0448    0.0000 C   0  0  0  0  0  0  0  0  0  0  0  0
    0.2527    1.1283    0.0000 O   0  0  0  0  0  0  0  0  0  0  0  0
  1  2  1  0
  2  3  1  0
  3  4  1  0
  4  5  2  0
  5  6  1  0
  6  7  1  0
  7  8  1  0
  8  9  2  0
  9 10  1  0
 10 11  1  0
 11 12  1  0
 12 13  1  0
 13 14  1  0
 14 15  1  0
 15 16  1  0
 10 17  2  0
 17 18  1  0
  6 19  2  0
 19 20  1  0
 20 21  1  0
 21 22  2  0
 21 23  1  0
 23 24  1  0
 24 25  1  0
 25 26  1  0
 26 27  1  0
 27 28  2  0
 27 29  1  0
 29 30  1  0
 30 31  2  0
 23 32  1  0
 32 33  2  0
 20  3  2  0
 30 24  1  0
 18  7  2  0
 32 19  1  0
 16 11  1  0
M  END
>  <Code>  (2) 
RW_491

>  <Molecular_Formula>  (2) 
C24H24N4O5

>  <MW>  (2) 
448.48

>  <CAS>  (2) 
-

>  <Purity>  (2) 
>=98% (HPLC)

>  <Quality>  (2) 
无菌; 无内毒素; 无核酸酶; 优先细胞培养级别 (sterile; endotoxin-free; nuclease-free; cell-culture grade preferred)

>  <InChIKey>  (2) 
KVGYOODUQYZQIN-UHFFFAOYSA-N

>  <Role>  (2) 
candidate

$$$$
RW_1987
     RDKit          2D

 33 37  0  0  0  0  0  0  0  0999 V2000
   -2.1458   -6.5034    0.0000 C   0  0  0  0  0  0  0  0  0  0  0  0
   -0.8793   -5.6996    0.0000 N   0  0  0  0  0  0  0  0  0  0  0  0
    0.4500   -6.3944    0.0000 C   0  0  0  0  0  0  0  0  0  0  0  0
   -0.9423   -4.2009    0.0000 C   0  0  0  0  0  0  0  0  0  0  0  0
   -2.2716   -3.5060    0.0000 C   0  0  0  0  0  0  0  0  0  0  0  0
   -2.3345   -2.0074    0.0000 C   0  0  0  0  0  0  0  0  0  0  0  0
   -1.0681   -1.2035    0.0000 C   0  0  0  0  0  0  0  0  0  0  0  0
    0.2613   -1.8984    0.0000 C   0  0  0  0  0  0  0  0  0  0  0  0
    1.5277   -1.0946    0.0000 C   0  0  0  0  0  0  0  0  0  0  0  0
    2.8571   -1.7894    0.0000 C   0  0  0  0  0  0  0  0  0  0  0  0
    4.1235   -0.9856    0.0000 C   0  0  0  0  0  0  0  0  0  0  0  0
    4.0606    0.5131    0.0000 C   0  0  0  0  0  0  0  0  0  0  0  0
    5.3270    1.3169    0.0000 N   0  0  0  0  0  0  0  0  0  0  0  0
    6.6564    0.6220    0.0000 C   0  0  0  0  0  0  0  0  0  0  0  0
    7.9228    1.4259    0.0000 C   0  0  0  0  0  0  0  0  0  0  0  0
    7.8599    2.9245    0.0000 N   0  0  0  0  0  0  0  0  0  0  0  0
    6.5306    3.6194    0.0000 C   0  0  0  0  0  0  0  0  0  0  0  0
    5.2641    2.8156    0.0000 C   0  0  0  0  0  0  0  0  0  0  0  0
    2.7312    1.2079    0.0000 C   0  0  0  0  0  0  0  0  0  0  0  0
    1.4648    0.4041    0.0000 C   0  0  0  0  0  0  0  0  0  0  0  0
    0.3242   -3.3971    0.0000 C   0  0  0  0  0  0  0  0  0  0  0  0
   -1.4412    0.2493    0.0000 C   0  0  0  0  0  0  0  0  0  0  0  0
   -0.4851    1.4051    0.0000 O   0  0  0  0  0  0  0  0  0  0  0  0
   -2.9383    0.3434    0.0000 N   0  0  0  0  0  0  0  0  0  0  0  0
   -3.7421    1.6098    0.0000 C   0  0  0  0  0  0  0  0  0  0  0  0
   -3.0472    2.9392    0.0000 C   0  0  0  0  0  0  0  0  0  0  0  0
   -3.8510    4.2056    0.0000 C   0  0  0  0  0  0  0  0  0  0  0  0
   -5.3497    4.1427    0.0000 C   0  0  0  0  0  0  0  0  0  0  0  0
   -6.1535    5.4092    0.0000 O   0  0  0  0  0  0  0  0  0  0  0  0
   -6.0446    2.8134    0.0000 N   0  0  0  0  0  0  0  0  0  0  0  0
   -5.2408    1.5469    0.0000 C   0  0  0  0  0  0  0  0  0  0  0  0
   -5.9356    0.2176    0.0000 O   0  0  0  0  0  0  0  0  0  0  0  0
   -3.4904   -1.0513    0.0000 C   0  0  0  0  0  0  0  0  0  0  0  0
  1  2  1  0
  2  3  1  0
  2  4  1  0
  4  5  2  0
  5  6  1  0
  6  7  2  0
  7  8  1  0
  8  9  1  0
  9 10  1  0
 10 11  2  0
 11 12  1  0
 12 13  1  0
 13 14  1  0
 14 15  1  0
 15 16  1  0
 16 17  1  0
 17 18  1  0
 12 19  2  0
 19 20  1  0
  8 21  2  0
  7 22  1  0
 22 23  2  0
 22 24  1  0
 24 25  1  0
 25 26  1  0
 26 27  1  0
 27 28  1  0
 28 29  2  0
 28 30  1  0
 30 31  1  0
 31 32  2  0
 24 33  1  0
 21  4  1  0
 31 25  1  0
 33  6  1  0
 20  9  2  0
 18 13  1  0
M  END
>  <Code>  (3) 
RW_1987

>  <Molecular_Formula>  (3) 
C25H29N5O3

>  <MW>  (3) 
447.54

>  <CAS>  (3) 
-

>  <Purity>  (3) 
>=98% (HPLC)

>  <Quality>  (3) 
无菌; 无内毒素; 无核酸酶; 优先细胞培养级别 (sterile; endotoxin-free; nuclease-free; cell-culture grade preferred)

>  <InChIKey>  (3) 
HEUQFHHFAMNVQC-UHFFFAOYSA-N

>  <Role>  (3) 
candidate

$$$$
RW_1959
     RDKit          2D

 31 35  0  0  0  0  0  0  0  0999 V2000
   -6.3707    4.7841    0.0000 O   0  0  0  0  0  0  0  0  0  0  0  0
   -5.5253    3.5450    0.0000 C   0  0  0  0  0  0  0  0  0  0  0  0
   -4.0295    3.6577    0.0000 C   0  0  0  0  0  0  0  0  0  0  0  0
   -3.1841    2.4187    0.0000 C   0  0  0  0  0  0  0  0  0  0  0  0
   -3.8344    1.0670    0.0000 C   0  0  0  0  0  0  0  0  0  0  0  0
   -2.9889   -0.1721    0.0000 N   0  0  0  0  0  0  0  0  0  0  0  0
   -3.4943   -1.5843    0.0000 C   0  0  0  0  0  0  0  0  0  0  0  0
   -2.3074   -2.5015    0.0000 C   0  0  0  0  0  0  0  0  0  0  0  0
   -2.1947   -3.9972    0.0000 C   0  0  0  0  0  0  0  0  0  0  0  0
   -0.8430   -4.6475    0.0000 C   0  0  0  0  0  0  0  0  0  0  0  0
   -0.7303   -6.1433    0.0000 O   0  0  0  0  0  0  0  0  0  0  0  0
    0.3960   -3.8021    0.0000 C   0  0  0  0  0  0  0  0  0  0  0  0
    0.2834   -2.3063    0.0000 C   0  0  0  0  0  0  0  0  0  0  0  0
    1.5224   -1.4609    0.0000 C   0  0  0  0  0  0  0  0  0  0  0  0
    2.8741   -2.1112    0.0000 C   0  0  0  0  0  0  0  0  0  0  0  0
    4.1131   -1.2657    0.0000 C   0  0  0  0  0  0  0  0  0  0  0  0
    4.0005    0.2301    0.0000 C   0  0  0  0  0  0  0  0  0  0  0  0
    5.2395    1.0755    0.0000 N   0  0  0  0  0  0  0  0  0  0  0  0
    6.5912    0.4252    0.0000 C   0  0  0  0  0  0  0  0  0  0  0  0
    7.8302    1.2707    0.0000 C   0  0  0  0  0  0  0  0  0  0  0  0
    7.7175    2.7664    0.0000 N   0  0  0  0  0  0  0  0  0  0  0  0
    6.3658    3.4167    0.0000 C   0  0  0  0  0  0  0  0  0  0  0  0
    5.1268    2.5713    0.0000 C   0  0  0  0  0  0  0  0  0  0  0  0
    2.6487    0.8804    0.0000 C   0  0  0  0  0  0  0  0  0  0  0  0
    1.4097    0.0349    0.0000 C   0  0  0  0  0  0  0  0  0  0  0  0
   -1.0683   -1.6560    0.0000 C   0  0  0  0  0  0  0  0  0  0  0  0
   -1.4895   -0.2164    0.0000 C   0  0  0  0  0  0  0  0  0  0  0  0
   -0.5724    0.9706    0.0000 O   0  0  0  0  0  0  0  0  0  0  0  0
   -5.3301    0.9543    0.0000 C   0  0  0  0  0  0  0  0  0  0  0  0
   -5.9804   -0.3974    0.0000 O   0  0  0  0  0  0  0  0  0  0  0  0
   -6.1756    2.1933    0.0000 N   0  0  0  0  0  0  0  0  0  0  0  0
  1  2  2  0
  2  3  1  0
  3  4  1  0
  4  5  1  0
  5  6  1  0
  6  7  1  0
  7  8  1  0
  8  9  1  0
  9 10  2  0
 10 11  1  0
 10 12  1  0
 12 13  2  0
 13 14  1  0
 14 15  1  0
 15 16  2  0
 16 17  1  0
 17 18  1  0
 18 19  1  0
 19 20  1  0
 20 21  1  0
 21 22  1  0
 22 23  1  0
 17 24  2  0
 24 25  1  0
 13 26  1  0
 26 27  1  0
 27 28  2  0
  5 29  1  0
 29 30  2  0
 29 31  1  0
 31  2  1  0
 27  6  1  0
 26  8  2  0
 25 14  2  0
 23 18  1  0
M  END
>  <Code>  (4) 
RW_1959

>  <Molecular_Formula>  (4) 
C23H24N4O4

>  <MW>  (4) 
420.47

>  <CAS>  (4) 
-

>  <Purity>  (4) 
>=98% (HPLC)

>  <Quality>  (4) 
无菌; 无内毒素; 无核酸酶; 优先细胞培养级别 (sterile; endotoxin-free; nuclease-free; cell-culture grade preferred)

>  <InChIKey>  (4) 
QWVWMIZYOCCSAD-UHFFFAOYSA-N

>  <Role>  (4) 
candidate

$$$$
RW_465
     RDKit          2D

 31 35  0  0  0  0  0  0  0  0999 V2000
   -6.3707    4.7841    0.0000 O   0  0  0  0  0  0  0  0  0  0  0  0
   -5.5253    3.5450    0.0000 C   0  0  0  0  0  0  0  0  0  0  0  0
   -4.0295    3.6577    0.0000 C   0  0  0  0  0  0  0  0  0  0  0  0
   -3.1841    2.4187    0.0000 C   0  0  0  0  0  0  0  0  0  0  0  0
   -3.8344    1.0670    0.0000 C   0  0  0  0  0  0  0  0  0  0  0  0
   -2.9889   -0.1721    0.0000 N   0  0  0  0  0  0  0  0  0  0  0  0
   -3.4943   -1.5843    0.0000 C   0  0  0  0  0  0  0  0  0  0  0  0
   -2.3074   -2.5015    0.0000 C   0  0  0  0  0  0  0  0  0  0  0  0
   -2.1947   -3.9972    0.0000 C   0  0  0  0  0  0  0  0  0  0  0  0
   -0.8430   -4.6475    0.0000 C   0  0  0  0  0  0  0  0  0  0  0  0
   -0.7303   -6.1433    0.0000 Br  0  0  0  0  0  0  0  0  0  0  0  0
    0.3960   -3.8021    0.0000 C   0  0  0  0  0  0  0  0  0  0  0  0
    0.2834   -2.3063    0.0000 C   0  0  0  0  0  0  0  0  0  0  0  0
    1.5224   -1.4609    0.0000 C   0  0  0  0  0  0  0  0  0  0  0  0
    2.8741   -2.1112    0.0000 C   0  0  0  0  0  0  0  0  0  0  0  0
    4.1131   -1.2657    0.0000 C   0  0  0  0  0  0  0  0  0  0  0  0
    4.0005    0.2301    0.0000 C   0  0  0  0  0  0  0  0  0  0  0  0
    5.2395    1.0755    0.0000 N   0  0  0  0  0  0  0  0  0  0  0  0
    6.5912    0.4252    0.0000 C   0  0  0  0  0  0  0  0  0  0  0  0
    7.8302    1.2707    0.0000 C   0  0  0  0  0  0  0  0  0  0  0  0
    7.7175    2.7664    0.0000 N   0  0  0  0  0  0  0  0  0  0  0  0
    6.3658    3.4167    0.0000 C   0  0  0  0  0  0  0  0  0  0  0  0
    5.1268    2.5713    0.0000 C   0  0  0  0  0  0  0  0  0  0  0  0
    2.6487    0.8804    0.0000 C   0  0  0  0  0  0  0  0  0  0  0  0
    1.4097    0.0349    0.0000 C   0  0  0  0  0  0  0  0  0  0  0  0
   -1.0683   -1.6560    0.0000 C   0  0  0  0  0  0  0  0  0  0  0  0
   -1.4895   -0.2164    0.0000 C   0  0  0  0  0  0  0  0  0  0  0  0
   -0.5724    0.9706    0.0000 O   0  0  0  0  0  0  0  0  0  0  0  0
   -5.3301    0.9543    0.0000 C   0  0  0  0  0  0  0  0  0  0  0  0
   -5.9804   -0.3974    0.0000 O   0  0  0  0  0  0  0  0  0  0  0  0
   -6.1756    2.1933    0.0000 N   0  0  0  0  0  0  0  0  0  0  0  0
  1  2  2  0
  2  3  1  0
  3  4  1  0
  4  5  1  0
  5  6  1  0
  6  7  1  0
  7  8  1  0
  8  9  1  0
  9 10  2  0
 10 11  1  0
 10 12  1  0
 12 13  2  0
 13 14  1  0
 14 15  1  0
 15 16  2  0
 16 17  1  0
 17 18  1  0
 18 19  1  0
 19 20  1  0
 20 21  1  0
 21 22  1  0
 22 23  1  0
 17 24  2  0
 24 25  1  0
 13 26  1  0
 26 27  1  0
 27 28  2  0
  5 29  1  0
 29 30  2  0
 29 31  1  0
 31  2  1  0
 27  6  1  0
 26  8  2  0
 25 14  2  0
 23 18  1  0
M  END
>  <Code>  (5) 
RW_465

>  <Molecular_Formula>  (5) 
C23H23BrN4O3

>  <MW>  (5) 
483.37

>  <CAS>  (5) 
-

>  <Purity>  (5) 
>=98% (HPLC)

>  <Quality>  (5) 
无菌; 无内毒素; 无核酸酶; 优先细胞培养级别 (sterile; endotoxin-free; nuclease-free; cell-culture grade preferred)

>  <InChIKey>  (5) 
NGHRLUITSVTZOV-UHFFFAOYSA-N

>  <Role>  (5) 
candidate

$$$$
RW_1992
     RDKit          2D

 34 38  0  0  0  0  0  0  0  0999 V2000
   -5.7475    5.9128    0.0000 O   0  0  0  0  0  0  0  0  0  0  0  0
   -4.9989    4.6129    0.0000 C   0  0  0  0  0  0  0  0  0  0  0  0
   -3.4989    4.6113    0.0000 C   0  0  0  0  0  0  0  0  0  0  0  0
   -2.7503    3.3115    0.0000 C   0  0  0  0  0  0  0  0  0  0  0  0
   -3.5017    2.0132    0.0000 C   0  0  0  0  0  0  0  0  0  0  0  0
   -2.7531    0.7134    0.0000 N   0  0  0  0  0  0  0  0  0  0  0  0
   -1.2615    0.5550    0.0000 C   0  0  0  0  0  0  0  0  0  0  0  0
   -0.9512   -0.9126    0.0000 C   0  0  0  0  0  0  0  0  0  0  0  0
   -2.2511   -1.6612    0.0000 C   0  0  0  0  0  0  0  0  0  0  0  0
   -2.2527   -3.1612    0.0000 C   0  0  0  0  0  0  0  0  0  0  0  0
   -0.9545   -3.9126    0.0000 C   0  0  0  0  0  0  0  0  0  0  0  0
   -0.9562   -5.4126    0.0000 C   0  0  0  0  0  0  0  0  0  0  0  0
   -0.9578   -6.9126    0.0000 F   0  0  0  0  0  0  0  0  0  0  0  0
   -2.4562   -5.4110    0.0000 F   0  0  0  0  0  0  0  0  0  0  0  0
    0.5438   -5.4142    0.0000 F   0  0  0  0  0  0  0  0  0  0  0  0
    0.3453   -3.1640    0.0000 C   0  0  0  0  0  0  0  0  0  0  0  0
    0.3470   -1.6640    0.0000 C   0  0  0  0  0  0  0  0  0  0  0  0
    1.6468   -0.9154    0.0000 C   0  0  0  0  0  0  0  0  0  0  0  0
    2.9450   -1.6668    0.0000 C   0  0  0  0  0  0  0  0  0  0  0  0
    4.2449   -0.9183    0.0000 C   0  0  0  0  0  0  0  0  0  0  0  0
    4.2465    0.5817    0.0000 C   0  0  0  0  0  0  0  0  0  0  0  0
    5.5464    1.3303    0.0000 N   0  0  0  0  0  0  0  0  0  0  0  0
    6.8446    0.5789    0.0000 C   0  0  0  0  0  0  0  0  0  0  0  0
    8.1445    1.3275    0.0000 C   0  0  0  0  0  0  0  0  0  0  0  0
    8.1461    2.8275    0.0000 N   0  0  0  0  0  0  0  0  0  0  0  0
    6.8479    3.5789    0.0000 C   0  0  0  0  0  0  0  0  0  0  0  0
    5.5480    2.8303    0.0000 C   0  0  0  0  0  0  0  0  0  0  0  0
    2.9483    1.3332    0.0000 C   0  0  0  0  0  0  0  0  0  0  0  0
    1.6485    0.5846    0.0000 C   0  0  0  0  0  0  0  0  0  0  0  0
   -3.3647   -0.6563    0.0000 C   0  0  0  0  0  0  0  0  0  0  0  0
   -4.8323   -0.9665    0.0000 O   0  0  0  0  0  0  0  0  0  0  0  0
   -5.0017    2.0149    0.0000 C   0  0  0  0  0  0  0  0  0  0  0  0
   -5.7531    0.7167    0.0000 O   0  0  0  0  0  0  0  0  0  0  0  0
   -5.7503    3.3147    0.0000 N   0  0  0  0  0  0  0  0  0  0  0  0
  1  2  2  0
  2  3  1  0
  3  4  1  0
  4  5  1  0
  5  6  1  0
  6  7  1  0
  7  8  1  0
  8  9  2  0
  9 10  1  0
 10 11  2  0
 11 12  1  0
 12 13  1  0
 12 14  1  0
 12 15  1  0
 11 16  1  0
 16 17  2  0
 17 18  1  0
 18 19  1  0
 19 20  2  0
 20 21  1  0
 21 22  1  0
 22 23  1  0
 23 24  1  0
 24 25  1  0
 25 26  1  0
 26 27  1  0
 21 28  2  0
 28 29  1  0
  9 30  1  0
 30 31  2  0
  5 32  1  0
 32 33  2  0
 32 34  1  0
 34  2  1  0
 30  6  1  0
 17  8  1  0
 29 18  2  0
 27 22  1  0
M  END
>  <Code>  (6) 
RW_1992

>  <Molecular_Formula>  (6) 
C24H23F3N4O3

>  <MW>  (6) 
472.47

>  <CAS>  (6) 
-

>  <Purity>  (6) 
>=98% (HPLC)

>  <Quality>  (6) 
无菌; 无内毒素; 无核酸酶; 优先细胞培养级别 (sterile; endotoxin-free; nuclease-free; cell-culture grade preferred)

>  <InChIKey>  (6) 
SSGOKPSHDJJEMM-UHFFFAOYSA-N

>  <Role>  (6) 
candidate

$$$$
RW_2392
     RDKit          2D

 33 37  0  0  0  0  0  0  0  0999 V2000
   -6.7653    4.7018    0.0000 O   0  0  0  0  0  0  0  0  0  0  0  0
   -5.8446    3.5177    0.0000 C   0  0  0  0  0  0  0  0  0  0  0  0
   -4.3587    3.7229    0.0000 C   0  0  0  0  0  0  0  0  0  0  0  0
   -3.4380    2.5387    0.0000 C   0  0  0  0  0  0  0  0  0  0  0  0
   -4.0032    1.1493    0.0000 C   0  0  0  0  0  0  0  0  0  0  0  0
   -3.0825   -0.0349    0.0000 N   0  0  0  0  0  0  0  0  0  0  0  0
   -1.5833    0.0139    0.0000 C   0  0  0  0  0  0  0  0  0  0  0  0
   -1.0736   -1.3968    0.0000 C   0  0  0  0  0  0  0  0  0  0  0  0
   -2.2577   -2.3175    0.0000 C   0  0  0  0  0  0  0  0  0  0  0  0
   -2.0525   -3.8034    0.0000 C   0  0  0  0  0  0  0  0  0  0  0  0
   -0.6630   -4.3686    0.0000 C   0  0  0  0  0  0  0  0  0  0  0  0
    0.5212   -3.4479    0.0000 C   0  0  0  0  0  0  0  0  0  0  0  0
    1.9106   -4.0131    0.0000 C   0  0  0  0  0  0  0  0  0  0  0  0
    3.0948   -3.0924    0.0000 O   0  0  0  0  0  0  0  0  0  0  0  0
    2.1159   -5.4990    0.0000 O   0  0  0  0  0  0  0  0  0  0  0  0
    0.3159   -1.9620    0.0000 C   0  0  0  0  0  0  0  0  0  0  0  0
    1.5001   -1.0413    0.0000 C   0  0  0  0  0  0  0  0  0  0  0  0
    2.8895   -1.6065    0.0000 C   0  0  0  0  0  0  0  0  0  0  0  0
    4.0737   -0.6858    0.0000 C   0  0  0  0  0  0  0  0  0  0  0  0
    3.8685    0.8001    0.0000 C   0  0  0  0  0  0  0  0  0  0  0  0
    5.0526    1.7208    0.0000 N   0  0  0  0  0  0  0  0  0  0  0  0
    6.4421    1.1557    0.0000 C   0  0  0  0  0  0  0  0  0  0  0  0
    7.6263    2.0764    0.0000 C   0  0  0  0  0  0  0  0  0  0  0  0
    7.4210    3.5622    0.0000 N   0  0  0  0  0  0  0  0  0  0  0  0
    6.0316    4.1274    0.0000 C   0  0  0  0  0  0  0  0  0  0  0  0
    4.8474    3.2067    0.0000 C   0  0  0  0  0  0  0  0  0  0  0  0
    2.4790    1.3653    0.0000 C   0  0  0  0  0  0  0  0  0  0  0  0
    1.2948    0.4446    0.0000 C   0  0  0  0  0  0  0  0  0  0  0  0
   -3.4993   -1.4758    0.0000 C   0  0  0  0  0  0  0  0  0  0  0  0
   -4.9101   -1.9855    0.0000 O   0  0  0  0  0  0  0  0  0  0  0  0
   -5.4891    0.9440    0.0000 C   0  0  0  0  0  0  0  0  0  0  0  0
   -6.0543   -0.4454    0.0000 O   0  0  0  0  0  0  0  0  0  0  0  0
   -6.4098    2.1282    0.0000 N   0  0  0  0  0  0  0  0  0  0  0  0
  1  2  2  0
  2  3  1  0
  3  4  1  0
  4  5  1  0
  5  6  1  0
  6  7  1  0
  7  8  1  0
  8  9  2  0
  9 10  1  0
 10 11  2  0
 11 12  1  0
 12 13  1  0
 13 14  2  0
 13 15  1  0
 12 16  2  0
 16 17  1  0
 17 18  1  0
 18 19  2  0
 19 20  1  0
 20 21  1  0
 21 22  1  0
 22 23  1  0
 23 24  1  0
 24 25  1  0
 25 26  1  0
 20 27  2  0
 27 28  1  0
  9 29  1  0
 29 30  2  0
  5 31  1  0
 31 32  2  0
 31 33  1  0
 33  2  1  0
 29  6  1  0
 16  8  1  0
 28 17  2  0
 26 21  1  0
M  END
>  <Code>  (7) 
RW_2392

>  <Molecular_Formula>  (7) 
C24H24N4O5

>  <MW>  (7) 
448.48

>  <CAS>  (7) 
-

>  <Purity>  (7) 
>=98% (HPLC)

>  <Quality>  (7) 
无菌; 无内毒素; 无核酸酶; 优先细胞培养级别 (sterile; endotoxin-free; nuclease-free; cell-culture grade preferred)

>  <InChIKey>  (7) 
ZKYWUJUXWXWCRB-UHFFFAOYSA-N

>  <Role>  (7) 
candidate

$$$$
RW_234
     RDKit          2D

 32 36  0  0  0  0  0  0  0  0999 V2000
    3.2814   -4.7587    0.0000 N   0  0  0  0  0  0  0  0  0  0  0  0
    1.9015   -4.1706    0.0000 C   0  0  0  0  0  0  0  0  0  0  0  0
    0.5216   -3.5824    0.0000 C   0  0  0  0  0  0  0  0  0  0  0  0
   -0.6777   -4.4834    0.0000 C   0  0  0  0  0  0  0  0  0  0  0  0
   -2.0576   -3.8953    0.0000 C   0  0  0  0  0  0  0  0  0  0  0  0
   -2.2382   -2.4062    0.0000 C   0  0  0  0  0  0  0  0  0  0  0  0
   -1.0389   -1.5052    0.0000 C   0  0  0  0  0  0  0  0  0  0  0  0
    0.3410   -2.0933    0.0000 C   0  0  0  0  0  0  0  0  0  0  0  0
    1.5402   -1.1924    0.0000 C   0  0  0  0  0  0  0  0  0  0  0  0
    2.9201   -1.7805    0.0000 C   0  0  0  0  0  0  0  0  0  0  0  0
    4.1194   -0.8795    0.0000 C   0  0  0  0  0  0  0  0  0  0  0  0
    3.9388    0.6096    0.0000 C   0  0  0  0  0  0  0  0  0  0  0  0
    5.1381    1.5105    0.0000 N   0  0  0  0  0  0  0  0  0  0  0  0
    6.5180    0.9224    0.0000 C   0  0  0  0  0  0  0  0  0  0  0  0
    7.7172    1.8234    0.0000 C   0  0  0  0  0  0  0  0  0  0  0  0
    7.5366    3.3124    0.0000 N   0  0  0  0  0  0  0  0  0  0  0  0
    6.1567    3.9006    0.0000 C   0  0  0  0  0  0  0  0  0  0  0  0
    4.9574    2.9996    0.0000 C   0  0  0  0  0  0  0  0  0  0  0  0
    2.5589    1.1977    0.0000 C   0  0  0  0  0  0  0  0  0  0  0  0
    1.3596    0.2967    0.0000 C   0  0  0  0  0  0  0  0  0  0  0  0
   -1.5252   -0.0862    0.0000 C   0  0  0  0  0  0  0  0  0  0  0  0
   -3.0250   -0.1102    0.0000 N   0  0  0  0  0  0  0  0  0  0  0  0
   -3.9260    1.0891    0.0000 C   0  0  0  0  0  0  0  0  0  0  0  0
   -3.3379    2.4690    0.0000 C   0  0  0  0  0  0  0  0  0  0  0  0
   -4.2388    3.6682    0.0000 C   0  0  0  0  0  0  0  0  0  0  0  0
   -5.7279    3.4876    0.0000 C   0  0  0  0  0  0  0  0  0  0  0  0
   -6.6289    4.6869    0.0000 O   0  0  0  0  0  0  0  0  0  0  0  0
   -6.3160    2.1077    0.0000 N   0  0  0  0  0  0  0  0  0  0  0  0
   -5.4151    0.9084    0.0000 C   0  0  0  0  0  0  0  0  0  0  0  0
   -6.0032   -0.4715    0.0000 O   0  0  0  0  0  0  0  0  0  0  0  0
   -3.4657   -1.5440    0.0000 C   0  0  0  0  0  0  0  0  0  0  0  0
   -4.8847   -2.0303    0.0000 O   0  0  0  0  0  0  0  0  0  0  0  0
  1  2  3  0
  2  3  1  0
  3  4  1  0
  4  5  2  0
  5  6  1  0
  6  7  2  0
  7  8  1  0
  8  9  1  0
  9 10  1  0
 10 11  2  0
 11 12  1  0
 12 13  1  0
 13 14  1  0
 14 15  1  0
 15 16  1  0
 16 17  1  0
 17 18  1  0
 12 19  2  0
 19 20  1  0
  7 21  1  0
 21 22  1  0
 22 23  1  0
 23 24  1  0
 24 25  1  0
 25 26  1  0
 26 27  2  0
 26 28  1  0
 28 29  1  0
 29 30  2  0
 22 31  1  0
 31 32  2  0
  8  3  2  0
 20  9  2  0
 29 23  1  0
 31  6  1  0
 18 13  1  0
M  END
>  <Code>  (8) 
RW_234

>  <Molecular_Formula>  (8) 
C24H23N5O3

>  <MW>  (8) 
429.48

>  <CAS>  (8) 
-

>  <Purity>  (8) 
>=98% (HPLC)

>  <Quality>  (8) 
无菌; 无内毒素; 无核酸酶; 优先细胞培养级别 (sterile; endotoxin-free; nuclease-free; cell-culture grade preferred)

>  <InChIKey>  (8) 
ZFSCZHKDHPXXNA-UHFFFAOYSA-N

>  <Role>  (8) 
candidate

$$$$
RW_2123
     RDKit          2D

 32 36  0  0  0  0  0  0  0  0999 V2000
    3.7707   -5.8112    0.0000 C   0  0  0  0  0  0  0  0  0  0  0  0
    3.7235   -4.3119    0.0000 N   0  0  0  0  0  0  0  0  0  0  0  0
    2.4015   -3.6031    0.0000 C   0  0  0  0  0  0  0  0  0  0  0  0
    1.1267   -4.3936    0.0000 C   0  0  0  0  0  0  0  0  0  0  0  0
   -0.1953   -3.6849    0.0000 C   0  0  0  0  0  0  0  0  0  0  0  0
   -0.2425   -2.1856    0.0000 C   0  0  0  0  0  0  0  0  0  0  0  0
   -1.5645   -1.4769    0.0000 C   0  0  0  0  0  0  0  0  0  0  0  0
   -1.6117    0.0224    0.0000 C   0  0  0  0  0  0  0  0  0  0  0  0
   -2.9337    0.7311    0.0000 C   0  0  0  0  0  0  0  0  0  0  0  0
   -4.2085   -0.0594    0.0000 C   0  0  0  0  0  0  0  0  0  0  0  0
   -5.5305    0.6494    0.0000 N   0  0  0  0  0  0  0  0  0  0  0  0
   -5.5777    2.1486    0.0000 C   0  0  0  0  0  0  0  0  0  0  0  0
   -6.8997    2.8574    0.0000 C   0  0  0  0  0  0  0  0  0  0  0  0
   -8.1745    2.0669    0.0000 N   0  0  0  0  0  0  0  0  0  0  0  0
   -8.1273    0.5676    0.0000 C   0  0  0  0  0  0  0  0  0  0  0  0
   -6.8053   -0.1411    0.0000 C   0  0  0  0  0  0  0  0  0  0  0  0
   -4.1613   -1.5586    0.0000 C   0  0  0  0  0  0  0  0  0  0  0  0
   -2.8393   -2.2674    0.0000 C   0  0  0  0  0  0  0  0  0  0  0  0
    1.0323   -1.3951    0.0000 C   0  0  0  0  0  0  0  0  0  0  0  0
    2.3543   -2.1039    0.0000 C   0  0  0  0  0  0  0  0  0  0  0  0
    3.4369   -1.0656    0.0000 C   0  0  0  0  0  0  0  0  0  0  0  0
    4.9132   -1.3312    0.0000 O   0  0  0  0  0  0  0  0  0  0  0  0
    2.7840    0.2848    0.0000 N   0  0  0  0  0  0  0  0  0  0  0  0
    3.4927    1.6068    0.0000 C   0  0  0  0  0  0  0  0  0  0  0  0
    4.9920    1.6540    0.0000 C   0  0  0  0  0  0  0  0  0  0  0  0
    5.7007    2.9760    0.0000 C   0  0  0  0  0  0  0  0  0  0  0  0
    4.9102    4.2508    0.0000 C   0  0  0  0  0  0  0  0  0  0  0  0
    5.6190    5.5728    0.0000 O   0  0  0  0  0  0  0  0  0  0  0  0
    3.4110    4.2036    0.0000 N   0  0  0  0  0  0  0  0  0  0  0  0
    2.7022    2.8816    0.0000 C   0  0  0  0  0  0  0  0  0  0  0  0
    1.2030    2.8344    0.0000 O   0  0  0  0  0  0  0  0  0  0  0  0
    1.2978    0.0812    0.0000 C   0  0  0  0  0  0  0  0  0  0  0  0
  1  2  1  0
  2  3  1  0
  3  4  1  0
  4  5  2  0
  5  6  1  0
  6  7  1  0
  7  8  1  0
  8  9  2  0
  9 10  1  0
 10 11  1  0
 11 12  1  0
 12 13  1  0
 13 14  1  0
 14 15  1  0
 15 16  1  0
 10 17  2  0
 17 18  1  0
  6 19  2  0
 19 20  1  0
 20 21  1  0
 21 22  2  0
 21 23  1  0
 23 24  1  0
 24 25  1  0
 25 26  1  0
 26 27  1  0
 27 28  2  0
 27 29  1  0
 29 30  1  0
 30 31  2  0
 23 32  1  0
 20  3  2  0
 30 24  1  0
 18  7  2  0
 32 19  1  0
 16 11  1  0
M  END
>  <Code>  (9) 
RW_2123

>  <Molecular_Formula>  (9) 
C24H27N5O3

>  <MW>  (9) 
433.51

>  <CAS>  (9) 
-

>  <Purity>  (9) 
>=98% (HPLC)

>  <Quality>  (9) 
无菌; 无内毒素; 无核酸酶; 优先细胞培养级别 (sterile; endotoxin-free; nuclease-free; cell-culture grade preferred)

>  <InChIKey>  (9) 
IBGAEEZLPYXDPJ-UHFFFAOYSA-N

>  <Role>  (9) 
candidate

$$$$
RW_1668
     RDKit          2D

 32 36  0  0  0  0  0  0  0  0999 V2000
   -2.1953   -6.6827    0.0000 C   0  0  0  0  0  0  0  0  0  0  0  0
   -0.9213   -5.8909    0.0000 N   0  0  0  0  0  0  0  0  0  0  0  0
   -0.9700   -4.3917    0.0000 C   0  0  0  0  0  0  0  0  0  0  0  0
   -2.2927   -3.6843    0.0000 C   0  0  0  0  0  0  0  0  0  0  0  0
   -2.3413   -2.1850    0.0000 C   0  0  0  0  0  0  0  0  0  0  0  0
   -1.0673   -1.3933    0.0000 C   0  0  0  0  0  0  0  0  0  0  0  0
    0.2554   -2.1007    0.0000 C   0  0  0  0  0  0  0  0  0  0  0  0
    1.5294   -1.3090    0.0000 C   0  0  0  0  0  0  0  0  0  0  0  0
    2.8521   -2.0164    0.0000 C   0  0  0  0  0  0  0  0  0  0  0  0
    4.1261   -1.2247    0.0000 C   0  0  0  0  0  0  0  0  0  0  0  0
    4.0774    0.2745    0.0000 C   0  0  0  0  0  0  0  0  0  0  0  0
    5.3515    1.0663    0.0000 N   0  0  0  0  0  0  0  0  0  0  0  0
    6.6742    0.3588    0.0000 C   0  0  0  0  0  0  0  0  0  0  0  0
    7.9482    1.1506    0.0000 C   0  0  0  0  0  0  0  0  0  0  0  0
    7.8995    2.6498    0.0000 N   0  0  0  0  0  0  0  0  0  0  0  0
    6.5768    3.3572    0.0000 C   0  0  0  0  0  0  0  0  0  0  0  0
    5.3028    2.5655    0.0000 C   0  0  0  0  0  0  0  0  0  0  0  0
    2.7548    0.9820    0.0000 C   0  0  0  0  0  0  0  0  0  0  0  0
    1.4807    0.1902    0.0000 C   0  0  0  0  0  0  0  0  0  0  0  0
    0.3041   -3.6000    0.0000 C   0  0  0  0  0  0  0  0  0  0  0  0
   -1.4266    0.0630    0.0000 C   0  0  0  0  0  0  0  0  0  0  0  0
   -0.4596    1.2097    0.0000 O   0  0  0  0  0  0  0  0  0  0  0  0
   -2.9227    0.1713    0.0000 N   0  0  0  0  0  0  0  0  0  0  0  0
   -3.7145    1.4454    0.0000 C   0  0  0  0  0  0  0  0  0  0  0  0
   -3.0070    2.7681    0.0000 C   0  0  0  0  0  0  0  0  0  0  0  0
   -3.7988    4.0421    0.0000 C   0  0  0  0  0  0  0  0  0  0  0  0
   -5.2980    3.9934    0.0000 C   0  0  0  0  0  0  0  0  0  0  0  0
   -6.0897    5.2674    0.0000 O   0  0  0  0  0  0  0  0  0  0  0  0
   -6.0054    2.6707    0.0000 N   0  0  0  0  0  0  0  0  0  0  0  0
   -5.2137    1.3967    0.0000 C   0  0  0  0  0  0  0  0  0  0  0  0
   -5.9211    0.0740    0.0000 O   0  0  0  0  0  0  0  0  0  0  0  0
   -3.4880   -1.2180    0.0000 C   0  0  0  0  0  0  0  0  0  0  0  0
  1  2  1  0
  2  3  1  0
  3  4  2  0
  4  5  1  0
  5  6  2  0
  6  7  1  0
  7  8  1  0
  8  9  1  0
  9 10  2  0
 10 11  1  0
 11 12  1  0
 12 13  1  0
 13 14  1  0
 14 15  1  0
 15 16  1  0
 16 17  1  0
 11 18  2  0
 18 19  1  0
  7 20  2  0
  6 21  1  0
 21 22  2  0
 21 23  1  0
 23 24  1  0
 24 25  1  0
 25 26  1  0
 26 27  1  0
 27 28  2  0
 27 29  1  0
 29 30  1  0
 30 31  2  0
 23 32  1  0
 20  3  1  0
 30 24  1  0
 32  5  1  0
 19  8  2  0
 17 12  1  0
M  END
>  <Code>  (10) 
RW_1668

>  <Molecular_Formula>  (10) 
C24H27N5O3

>  <MW>  (10) 
433.51

>  <CAS>  (10) 
-

>  <Purity>  (10) 
>=98% (HPLC)

>  <Quality>  (10) 
无菌; 无内毒素; 无核酸酶; 优先细胞培养级别 (sterile; endotoxin-free; nuclease-free; cell-culture grade preferred)

>  <InChIKey>  (10) 
FZLNLZAMAXQVHW-UHFFFAOYSA-N

>  <Role>  (10) 
candidate

$$$$
RW_445
     RDKit          2D

 32 36  0  0  0  0  0  0  0  0999 V2000
   -6.0906    5.0041    0.0000 O   0  0  0  0  0  0  0  0  0  0  0  0
   -5.2771    3.7439    0.0000 C   0  0  0  0  0  0  0  0  0  0  0  0
   -3.7789    3.8183    0.0000 C   0  0  0  0  0  0  0  0  0  0  0  0
   -2.9654    2.5580    0.0000 C   0  0  0  0  0  0  0  0  0  0  0  0
   -3.6501    1.2234    0.0000 C   0  0  0  0  0  0  0  0  0  0  0  0
   -2.8366   -0.0369    0.0000 N   0  0  0  0  0  0  0  0  0  0  0  0
   -3.3780   -1.4358    0.0000 C   0  0  0  0  0  0  0  0  0  0  0  0
   -4.8279   -1.8200    0.0000 O   0  0  0  0  0  0  0  0  0  0  0  0
   -2.2149   -2.3829    0.0000 C   0  0  0  0  0  0  0  0  0  0  0  0
   -2.1405   -3.8811    0.0000 C   0  0  0  0  0  0  0  0  0  0  0  0
   -0.8058   -4.5657    0.0000 C   0  0  0  0  0  0  0  0  0  0  0  0
   -0.7314   -6.0639    0.0000 Cl  0  0  0  0  0  0  0  0  0  0  0  0
    0.4544   -3.7523    0.0000 C   0  0  0  0  0  0  0  0  0  0  0  0
    0.3800   -2.2541    0.0000 C   0  0  0  0  0  0  0  0  0  0  0  0
    1.6403   -1.4406    0.0000 C   0  0  0  0  0  0  0  0  0  0  0  0
    2.9749   -2.1253    0.0000 C   0  0  0  0  0  0  0  0  0  0  0  0
    4.2352   -1.3118    0.0000 C   0  0  0  0  0  0  0  0  0  0  0  0
    4.1608    0.1864    0.0000 C   0  0  0  0  0  0  0  0  0  0  0  0
    5.4210    0.9999    0.0000 N   0  0  0  0  0  0  0  0  0  0  0  0
    6.7556    0.3152    0.0000 C   0  0  0  0  0  0  0  0  0  0  0  0
    8.0159    1.1287    0.0000 C   0  0  0  0  0  0  0  0  0  0  0  0
    7.9415    2.6269    0.0000 N   0  0  0  0  0  0  0  0  0  0  0  0
    6.6069    3.3115    0.0000 C   0  0  0  0  0  0  0  0  0  0  0  0
    5.3466    2.4981    0.0000 C   0  0  0  0  0  0  0  0  0  0  0  0
    2.8261    0.8711    0.0000 C   0  0  0  0  0  0  0  0  0  0  0  0
    1.5659    0.0576    0.0000 C   0  0  0  0  0  0  0  0  0  0  0  0
   -0.9546   -1.5694    0.0000 C   0  0  0  0  0  0  0  0  0  0  0  0
   -1.3389   -0.1195    0.0000 C   0  0  0  0  0  0  0  0  0  0  0  0
   -0.3917    1.0436    0.0000 O   0  0  0  0  0  0  0  0  0  0  0  0
   -5.1482    1.1490    0.0000 C   0  0  0  0  0  0  0  0  0  0  0  0
   -5.8329   -0.1856    0.0000 O   0  0  0  0  0  0  0  0  0  0  0  0
   -5.9617    2.4092    0.0000 N   0  0  0  0  0  0  0  0  0  0  0  0
  1  2  2  0
  2  3  1  0
  3  4  1  0
  4  5  1  0
  5  6  1  0
  6  7  1  0
  7  8  2  0
  7  9  1  0
  9 10  1  0
 10 11  2  0
 11 12  1  0
 11 13  1  0
 13 14  2  0
 14 15  1  0
 15 16  1  0
 16 17  2  0
 17 18  1  0
 18 19  1  0
 19 20  1  0
 20 21  1  0
 21 22  1  0
 22 23  1  0
 23 24  1  0
 18 25  2  0
 25 26  1  0
 14 27  1  0
 27 28  1  0
 28 29  2  0
  5 30  1  0
 30 31  2  0
 30 32  1  0
 32  2  1  0
 28  6  1  0
 27  9  2  0
 26 15  2  0
 24 19  1  0
M  END
>  <Code>  (11) 
RW_445

>  <Molecular_Formula>  (11) 
C23H21ClN4O4

>  <MW>  (11) 
452.9

>  <CAS>  (11) 
-

>  <Purity>  (11) 
>=98% (HPLC)

>  <Quality>  (11) 
无菌; 无内毒素; 无核酸酶; 优先细胞培养级别 (sterile; endotoxin-free; nuclease-free; cell-culture grade preferred)

>  <InChIKey>  (11) 
FBNYGMGXASRJHG-UHFFFAOYSA-N

>  <Role>  (11) 
candidate

$$$$
RW_779
     RDKit          2D

 32 36  0  0  0  0  0  0  0  0999 V2000
   -6.0906    5.0041    0.0000 O   0  0  0  0  0  0  0  0  0  0  0  0
   -5.2771    3.7439    0.0000 C   0  0  0  0  0  0  0  0  0  0  0  0
   -3.7789    3.8183    0.0000 C   0  0  0  0  0  0  0  0  0  0  0  0
   -2.9654    2.5580    0.0000 C   0  0  0  0  0  0  0  0  0  0  0  0
   -3.6501    1.2234    0.0000 C   0  0  0  0  0  0  0  0  0  0  0  0
   -2.8366   -0.0369    0.0000 N   0  0  0  0  0  0  0  0  0  0  0  0
   -3.3780   -1.4358    0.0000 C   0  0  0  0  0  0  0  0  0  0  0  0
   -4.8279   -1.8200    0.0000 O   0  0  0  0  0  0  0  0  0  0  0  0
   -2.2149   -2.3829    0.0000 C   0  0  0  0  0  0  0  0  0  0  0  0
   -2.1405   -3.8811    0.0000 C   0  0  0  0  0  0  0  0  0  0  0  0
   -0.8058   -4.5657    0.0000 C   0  0  0  0  0  0  0  0  0  0  0  0
   -0.7314   -6.0639    0.0000 Br  0  0  0  0  0  0  0  0  0  0  0  0
    0.4544   -3.7523    0.0000 C   0  0  0  0  0  0  0  0  0  0  0  0
    0.3800   -2.2541    0.0000 C   0  0  0  0  0  0  0  0  0  0  0  0
    1.6403   -1.4406    0.0000 C   0  0  0  0  0  0  0  0  0  0  0  0
    2.9749   -2.1253    0.0000 C   0  0  0  0  0  0  0  0  0  0  0  0
    4.2352   -1.3118    0.0000 C   0  0  0  0  0  0  0  0  0  0  0  0
    4.1608    0.1864    0.0000 C   0  0  0  0  0  0  0  0  0  0  0  0
    5.4210    0.9999    0.0000 N   0  0  0  0  0  0  0  0  0  0  0  0
    6.7556    0.3152    0.0000 C   0  0  0  0  0  0  0  0  0  0  0  0
    8.0159    1.1287    0.0000 C   0  0  0  0  0  0  0  0  0  0  0  0
    7.9415    2.6269    0.0000 N   0  0  0  0  0  0  0  0  0  0  0  0
    6.6069    3.3115    0.0000 C   0  0  0  0  0  0  0  0  0  0  0  0
    5.3466    2.4981    0.0000 C   0  0  0  0  0  0  0  0  0  0  0  0
    2.8261    0.8711    0.0000 C   0  0  0  0  0  0  0  0  0  0  0  0
    1.5659    0.0576    0.0000 C   0  0  0  0  0  0  0  0  0  0  0  0
   -0.9546   -1.5694    0.0000 C   0  0  0  0  0  0  0  0  0  0  0  0
   -1.3389   -0.1195    0.0000 C   0  0  0  0  0  0  0  0  0  0  0  0
   -0.3917    1.0436    0.0000 O   0  0  0  0  0  0  0  0  0  0  0  0
   -5.1482    1.1490    0.0000 C   0  0  0  0  0  0  0  0  0  0  0  0
   -5.8329   -0.1856    0.0000 O   0  0  0  0  0  0  0  0  0  0  0  0
   -5.9617    2.4092    0.0000 N   0  0  0  0  0  0  0  0  0  0  0  0
  1  2  2  0
  2  3  1  0
  3  4  1  0
  4  5  1  0
  5  6  1  0
  6  7  1  0
  7  8  2  0
  7  9  1  0
  9 10  1  0
 10 11  2  0
 11 12  1  0
 11 13  1  0
 13 14  2  0
 14 15  1  0
 15 16  1  0
 16 17  2  0
 17 18  1  0
 18 19  1  0
 19 20  1  0
 20 21  1  0
 21 22  1  0
 22 23  1  0
 23 24  1  0
 18 25  2  0
 25 26  1  0
 14 27  1  0
 27 28  1  0
 28 29  2  0
  5 30  1  0
 30 31  2  0
 30 32  1  0
 32  2  1  0
 28  6  1  0
 27  9  2  0
 26 15  2  0
 24 19  1  0
M  END
>  <Code>  (12) 
RW_779

>  <Molecular_Formula>  (12) 
C23H21BrN4O4

>  <MW>  (12) 
497.35

>  <CAS>  (12) 
-

>  <Purity>  (12) 
>=98% (HPLC)

>  <Quality>  (12) 
无菌; 无内毒素; 无核酸酶; 优先细胞培养级别 (sterile; endotoxin-free; nuclease-free; cell-culture grade preferred)

>  <InChIKey>  (12) 
GFRBULVNJCIFIG-UHFFFAOYSA-N

>  <Role>  (12) 
candidate

$$$$
RW_381
     RDKit          2D

 31 35  0  0  0  0  0  0  0  0999 V2000
   -6.1276    4.9419    0.0000 O   0  0  0  0  0  0  0  0  0  0  0  0
   -5.3225    3.6763    0.0000 C   0  0  0  0  0  0  0  0  0  0  0  0
   -3.8239    3.7408    0.0000 C   0  0  0  0  0  0  0  0  0  0  0  0
   -3.0187    2.4752    0.0000 C   0  0  0  0  0  0  0  0  0  0  0  0
   -3.7122    1.1451    0.0000 C   0  0  0  0  0  0  0  0  0  0  0  0
   -2.9071   -0.1205    0.0000 N   0  0  0  0  0  0  0  0  0  0  0  0
   -3.4577   -1.5158    0.0000 C   0  0  0  0  0  0  0  0  0  0  0  0
   -2.3009   -2.4707    0.0000 C   0  0  0  0  0  0  0  0  0  0  0  0
   -2.2364   -3.9693    0.0000 C   0  0  0  0  0  0  0  0  0  0  0  0
   -3.5020   -4.7744    0.0000 Cl  0  0  0  0  0  0  0  0  0  0  0  0
   -0.9063   -4.6627    0.0000 C   0  0  0  0  0  0  0  0  0  0  0  0
    0.3593   -3.8576    0.0000 C   0  0  0  0  0  0  0  0  0  0  0  0
    0.2948   -2.3590    0.0000 C   0  0  0  0  0  0  0  0  0  0  0  0
    1.5604   -1.5538    0.0000 C   0  0  0  0  0  0  0  0  0  0  0  0
    2.8905   -2.2473    0.0000 C   0  0  0  0  0  0  0  0  0  0  0  0
    4.1561   -1.4422    0.0000 C   0  0  0  0  0  0  0  0  0  0  0  0
    4.0916    0.0564    0.0000 C   0  0  0  0  0  0  0  0  0  0  0  0
    5.3572    0.8616    0.0000 N   0  0  0  0  0  0  0  0  0  0  0  0
    6.6873    0.1681    0.0000 C   0  0  0  0  0  0  0  0  0  0  0  0
    7.9529    0.9733    0.0000 C   0  0  0  0  0  0  0  0  0  0  0  0
    7.8884    2.4719    0.0000 N   0  0  0  0  0  0  0  0  0  0  0  0
    6.5583    3.1653    0.0000 C   0  0  0  0  0  0  0  0  0  0  0  0
    5.2927    2.3602    0.0000 C   0  0  0  0  0  0  0  0  0  0  0  0
    2.7615    0.7499    0.0000 C   0  0  0  0  0  0  0  0  0  0  0  0
    1.4959   -0.0552    0.0000 C   0  0  0  0  0  0  0  0  0  0  0  0
   -1.0353   -1.6655    0.0000 C   0  0  0  0  0  0  0  0  0  0  0  0
   -1.4099   -0.2130    0.0000 C   0  0  0  0  0  0  0  0  0  0  0  0
   -0.4551    0.9438    0.0000 O   0  0  0  0  0  0  0  0  0  0  0  0
   -5.2108    1.0806    0.0000 C   0  0  0  0  0  0  0  0  0  0  0  0
   -5.9043   -0.2495    0.0000 O   0  0  0  0  0  0  0  0  0  0  0  0
   -6.0160    2.3462    0.0000 N   0  0  0  0  0  0  0  0  0  0  0  0
  1  2  2  0
  2  3  1  0
  3  4  1  0
  4  5  1  0
  5  6  1  0
  6  7  1  0
  7  8  1  0
  8  9  2  0
  9 10  1  0
  9 11  1  0
 11 12  2  0
 12 13  1  0
 13 14  1  0
 14 15  1  0
 15 16  2  0
 16 17  1  0
 17 18  1  0
 18 19  1  0
 19 20  1  0
 20 21  1  0
 21 22  1  0
 22 23  1  0
 17 24  2  0
 24 25  1  0
 13 26  2  0
 26 27  1  0
 27 28  2  0
  5 29  1  0
 29 30  2  0
 29 31  1  0
 31  2  1  0
 27  6  1  0
 26  8  1  0
 25 14  2  0
 23 18  1  0
M  END
>  <Code>  (13) 
RW_381

>  <Molecular_Formula>  (13) 
C23H23ClN4O3

>  <MW>  (13) 
438.92

>  <CAS>  (13) 
-

>  <Purity>  (13) 
>=98% (HPLC)

>  <Quality>  (13) 
无菌; 无内毒素; 无核酸酶; 优先细胞培养级别 (sterile; endotoxin-free; nuclease-free; cell-culture grade preferred)

>  <InChIKey>  (13) 
QRLZBBPGWOSMIH-UHFFFAOYSA-N

>  <Role>  (13) 
candidate

$$$$
RW_1092
     RDKit          2D

 31 35  0  0  0  0  0  0  0  0999 V2000
   -6.3707    4.7841    0.0000 O   0  0  0  0  0  0  0  0  0  0  0  0
   -5.5253    3.5450    0.0000 C   0  0  0  0  0  0  0  0  0  0  0  0
   -4.0295    3.6577    0.0000 C   0  0  0  0  0  0  0  0  0  0  0  0
   -3.1841    2.4187    0.0000 C   0  0  0  0  0  0  0  0  0  0  0  0
   -3.8344    1.0670    0.0000 C   0  0  0  0  0  0  0  0  0  0  0  0
   -2.9889   -0.1721    0.0000 N   0  0  0  0  0  0  0  0  0  0  0  0
   -3.4943   -1.5843    0.0000 C   0  0  0  0  0  0  0  0  0  0  0  0
   -2.3074   -2.5015    0.0000 C   0  0  0  0  0  0  0  0  0  0  0  0
   -2.1947   -3.9972    0.0000 C   0  0  0  0  0  0  0  0  0  0  0  0
   -0.8430   -4.6475    0.0000 C   0  0  0  0  0  0  0  0  0  0  0  0
   -0.7303   -6.1433    0.0000 Cl  0  0  0  0  0  0  0  0  0  0  0  0
    0.3960   -3.8021    0.0000 C   0  0  0  0  0  0  0  0  0  0  0  0
    0.2834   -2.3063    0.0000 C   0  0  0  0  0  0  0  0  0  0  0  0
    1.5224   -1.4609    0.0000 C   0  0  0  0  0  0  0  0  0  0  0  0
    2.8741   -2.1112    0.0000 C   0  0  0  0  0  0  0  0  0  0  0  0
    4.1131   -1.2657    0.0000 C   0  0  0  0  0  0  0  0  0  0  0  0
    4.0005    0.2301    0.0000 C   0  0  0  0  0  0  0  0  0  0  0  0
    5.2395    1.0755    0.0000 N   0  0  0  0  0  0  0  0  0  0  0  0
    6.5912    0.4252    0.0000 C   0  0  0  0  0  0  0  0  0  0  0  0
    7.8302    1.2707    0.0000 C   0  0  0  0  0  0  0  0  0  0  0  0
    7.7175    2.7664    0.0000 N   0  0  0  0  0  0  0  0  0  0  0  0
    6.3658    3.4167    0.0000 C   0  0  0  0  0  0  0  0  0  0  0  0
    5.1268    2.5713    0.0000 C   0  0  0  0  0  0  0  0  0  0  0  0
    2.6487    0.8804    0.0000 C   0  0  0  0  0  0  0  0  0  0  0  0
    1.4097    0.0349    0.0000 C   0  0  0  0  0  0  0  0  0  0  0  0
   -1.0683   -1.6560    0.0000 C   0  0  0  0  0  0  0  0  0  0  0  0
   -1.4895   -0.2164    0.0000 C   0  0  0  0  0  0  0  0  0  0  0  0
   -0.5724    0.9706    0.0000 O   0  0  0  0  0  0  0  0  0  0  0  0
   -5.3301    0.9543    0.0000 C   0  0  0  0  0  0  0  0  0  0  0  0
   -5.9804   -0.3974    0.0000 O   0  0  0  0  0  0  0  0  0  0  0  0
   -6.1756    2.1933    0.0000 N   0  0  0  0  0  0  0  0  0  0  0  0
  1  2  2  0
  2  3  1  0
  3  4  1  0
  4  5  1  0
  5  6  1  0
  6  7  1  0
  7  8  1  0
  8  9  1  0
  9 10  2  0
 10 11  1  0
 10 12  1  0
 12 13  2  0
 13 14  1  0
 14 15  1  0
 15 16  2  0
 16 17  1  0
 17 18  1  0
 18 19  1  0
 19 20  1  0
 20 21  1  0
 21 22  1  0
 22 23  1  0
 17 24  2  0
 24 25  1  0
 13 26  1  0
 26 27  1  0
 27 28  2  0
  5 29  1  0
 29 30  2  0
 29 31  1  0
 31  2  1  0
 27  6  1  0
 26  8  2  0
 25 14  2  0
 23 18  1  0
M  END
>  <Code>  (14) 
RW_1092

>  <Molecular_Formula>  (14) 
C23H23ClN4O3

>  <MW>  (14) 
438.92

>  <CAS>  (14) 
-

>  <Purity>  (14) 
>=98% (HPLC)

>  <Quality>  (14) 
无菌; 无内毒素; 无核酸酶; 优先细胞培养级别 (sterile; endotoxin-free; nuclease-free; cell-culture grade preferred)

>  <InChIKey>  (14) 
JJMSLPKTOIRBKR-UHFFFAOYSA-N

>  <Role>  (14) 
candidate

$$$$
RW_1078
     RDKit          2D

 32 36  0  0  0  0  0  0  0  0999 V2000
   -6.0906    5.0041    0.0000 O   0  0  0  0  0  0  0  0  0  0  0  0
   -5.2771    3.7439    0.0000 C   0  0  0  0  0  0  0  0  0  0  0  0
   -3.7789    3.8183    0.0000 C   0  0  0  0  0  0  0  0  0  0  0  0
   -2.9654    2.5580    0.0000 C   0  0  0  0  0  0  0  0  0  0  0  0
   -3.6501    1.2234    0.0000 C   0  0  0  0  0  0  0  0  0  0  0  0
   -2.8366   -0.0369    0.0000 N   0  0  0  0  0  0  0  0  0  0  0  0
   -3.3780   -1.4358    0.0000 C   0  0  0  0  0  0  0  0  0  0  0  0
   -4.8279   -1.8200    0.0000 O   0  0  0  0  0  0  0  0  0  0  0  0
   -2.2149   -2.3829    0.0000 C   0  0  0  0  0  0  0  0  0  0  0  0
   -2.1405   -3.8811    0.0000 C   0  0  0  0  0  0  0  0  0  0  0  0
   -0.8058   -4.5657    0.0000 C   0  0  0  0  0  0  0  0  0  0  0  0
   -0.7314   -6.0639    0.0000 F   0  0  0  0  0  0  0  0  0  0  0  0
    0.4544   -3.7523    0.0000 C   0  0  0  0  0  0  0  0  0  0  0  0
    0.3800   -2.2541    0.0000 C   0  0  0  0  0  0  0  0  0  0  0  0
    1.6403   -1.4406    0.0000 C   0  0  0  0  0  0  0  0  0  0  0  0
    2.9749   -2.1253    0.0000 C   0  0  0  0  0  0  0  0  0  0  0  0
    4.2352   -1.3118    0.0000 C   0  0  0  0  0  0  0  0  0  0  0  0
    4.1608    0.1864    0.0000 C   0  0  0  0  0  0  0  0  0  0  0  0
    5.4210    0.9999    0.0000 N   0  0  0  0  0  0  0  0  0  0  0  0
    6.7556    0.3152    0.0000 C   0  0  0  0  0  0  0  0  0  0  0  0
    8.0159    1.1287    0.0000 C   0  0  0  0  0  0  0  0  0  0  0  0
    7.9415    2.6269    0.0000 N   0  0  0  0  0  0  0  0  0  0  0  0
    6.6069    3.3115    0.0000 C   0  0  0  0  0  0  0  0  0  0  0  0
    5.3466    2.4981    0.0000 C   0  0  0  0  0  0  0  0  0  0  0  0
    2.8261    0.8711    0.0000 C   0  0  0  0  0  0  0  0  0  0  0  0
    1.5659    0.0576    0.0000 C   0  0  0  0  0  0  0  0  0  0  0  0
   -0.9546   -1.5694    0.0000 C   0  0  0  0  0  0  0  0  0  0  0  0
   -1.3389   -0.1195    0.0000 C   0  0  0  0  0  0  0  0  0  0  0  0
   -0.3917    1.0436    0.0000 O   0  0  0  0  0  0  0  0  0  0  0  0
   -5.1482    1.1490    0.0000 C   0  0  0  0  0  0  0  0  0  0  0  0
   -5.8329   -0.1856    0.0000 O   0  0  0  0  0  0  0  0  0  0  0  0
   -5.9617    2.4092    0.0000 N   0  0  0  0  0  0  0  0  0  0  0  0
  1  2  2  0
  2  3  1  0
  3  4  1  0
  4  5  1  0
  5  6  1  0
  6  7  1  0
  7  8  2  0
  7  9  1  0
  9 10  1  0
 10 11  2  0
 11 12  1  0
 11 13  1  0
 13 14  2  0
 14 15  1  0
 15 16  1  0
 16 17  2  0
 17 18  1  0
 18 19  1  0
 19 20  1  0
 20 21  1  0
 21 22  1  0
 22 23  1  0
 23 24  1  0
 18 25  2  0
 25 26  1  0
 14 27  1  0
 27 28  1  0
 28 29  2  0
  5 30  1  0
 30 31  2  0
 30 32  1  0
 32  2  1  0
 28  6  1  0
 27  9  2  0
 26 15  2  0
 24 19  1  0
M  END
>  <Code>  (15) 
RW_1078

>  <Molecular_Formula>  (15) 
C23H21FN4O4

>  <MW>  (15) 
436.44

>  <CAS>  (15) 
-

>  <Purity>  (15) 
>=98% (HPLC)

>  <Quality>  (15) 
无菌; 无内毒素; 无核酸酶; 优先细胞培养级别 (sterile; endotoxin-free; nuclease-free; cell-culture grade preferred)

>  <InChIKey>  (15) 
FQXWTOGXZXQRRO-UHFFFAOYSA-N

>  <Role>  (15) 
candidate

$$$$
RW_80
     RDKit          2D

 32 36  0  0  0  0  0  0  0  0999 V2000
   -9.5845    1.8741    0.0000 O   0  0  0  0  0  0  0  0  0  0  0  0
   -8.1559    1.4167    0.0000 C   0  0  0  0  0  0  0  0  0  0  0  0
   -7.0455    2.4252    0.0000 C   0  0  0  0  0  0  0  0  0  0  0  0
   -5.6170    1.9679    0.0000 C   0  0  0  0  0  0  0  0  0  0  0  0
   -5.2988    0.5020    0.0000 C   0  0  0  0  0  0  0  0  0  0  0  0
   -3.8702    0.0446    0.0000 N   0  0  0  0  0  0  0  0  0  0  0  0
   -3.4005   -1.3799    0.0000 C   0  0  0  0  0  0  0  0  0  0  0  0
   -4.2770   -2.5973    0.0000 O   0  0  0  0  0  0  0  0  0  0  0  0
   -1.9005   -1.3735    0.0000 C   0  0  0  0  0  0  0  0  0  0  0  0
   -0.8920   -2.4838    0.0000 C   0  0  0  0  0  0  0  0  0  0  0  0
    0.5738   -2.1657    0.0000 C   0  0  0  0  0  0  0  0  0  0  0  0
    1.5823   -3.2760    0.0000 F   0  0  0  0  0  0  0  0  0  0  0  0
    1.0312   -0.7371    0.0000 C   0  0  0  0  0  0  0  0  0  0  0  0
    2.4970   -0.4189    0.0000 C   0  0  0  0  0  0  0  0  0  0  0  0
    3.5055   -1.5293    0.0000 C   0  0  0  0  0  0  0  0  0  0  0  0
    4.9714   -1.2111    0.0000 C   0  0  0  0  0  0  0  0  0  0  0  0
    5.4288    0.2175    0.0000 C   0  0  0  0  0  0  0  0  0  0  0  0
    6.8946    0.5357    0.0000 N   0  0  0  0  0  0  0  0  0  0  0  0
    7.9031   -0.5747    0.0000 C   0  0  0  0  0  0  0  0  0  0  0  0
    9.3690   -0.2565    0.0000 C   0  0  0  0  0  0  0  0  0  0  0  0
    9.8264    1.1721    0.0000 N   0  0  0  0  0  0  0  0  0  0  0  0
    8.8179    2.2825    0.0000 C   0  0  0  0  0  0  0  0  0  0  0  0
    7.3520    1.9643    0.0000 C   0  0  0  0  0  0  0  0  0  0  0  0
    4.4203    1.3279    0.0000 C   0  0  0  0  0  0  0  0  0  0  0  0
    2.9544    1.0097    0.0000 C   0  0  0  0  0  0  0  0  0  0  0  0
    0.0227    0.3733    0.0000 C   0  0  0  0  0  0  0  0  0  0  0  0
   -1.4432    0.0551    0.0000 C   0  0  0  0  0  0  0  0  0  0  0  0
   -2.6605    0.9315    0.0000 C   0  0  0  0  0  0  0  0  0  0  0  0
   -2.6670    2.4315    0.0000 O   0  0  0  0  0  0  0  0  0  0  0  0
   -6.4092   -0.5065    0.0000 C   0  0  0  0  0  0  0  0  0  0  0  0
   -6.0910   -1.9724    0.0000 O   0  0  0  0  0  0  0  0  0  0  0  0
   -7.8377   -0.0491    0.0000 N   0  0  0  0  0  0  0  0  0  0  0  0
  1  2  2  0
  2  3  1  0
  3  4  1  0
  4  5  1  0
  5  6  1  0
  6  7  1  0
  7  8  2  0
  7  9  1  0
  9 10  1  0
 10 11  2  0
 11 12  1  0
 11 13  1  0
 13 14  1  0
 14 15  1  0
 15 16  2  0
 16 17  1  0
 17 18  1  0
 18 19  1  0
 19 20  1  0
 20 21  1  0
 21 22  1  0
 22 23  1  0
 17 24  2  0
 24 25  1  0
 13 26  2  0
 26 27  1  0
 27 28  1  0
 28 29  2  0
  5 30  1  0
 30 31  2  0
 30 32  1  0
 32  2  1  0
 28  6  1  0
 27  9  2  0
 25 14  2  0
 23 18  1  0
M  END
>  <Code>  (16) 
RW_80

>  <Molecular_Formula>  (16) 
C23H21FN4O4

>  <MW>  (16) 
436.44

>  <CAS>  (16) 
-

>  <Purity>  (16) 
>=98% (HPLC)

>  <Quality>  (16) 
无菌; 无内毒素; 无核酸酶; 优先细胞培养级别 (sterile; endotoxin-free; nuclease-free; cell-culture grade preferred)

>  <InChIKey>  (16) 
WWNGZLOXSAIZPI-UHFFFAOYSA-N

>  <Role>  (16) 
candidate

$$$$
RW_72
     RDKit          2D

 30 34  0  0  0  0  0  0  0  0999 V2000
   -6.4486    4.5036    0.0000 O   0  0  0  0  0  0  0  0  0  0  0  0
   -5.5886    3.2746    0.0000 C   0  0  0  0  0  0  0  0  0  0  0  0
   -4.0943    3.4049    0.0000 C   0  0  0  0  0  0  0  0  0  0  0  0
   -3.2343    2.1759    0.0000 C   0  0  0  0  0  0  0  0  0  0  0  0
   -3.8686    0.8166    0.0000 C   0  0  0  0  0  0  0  0  0  0  0  0
   -3.0086   -0.4123    0.0000 N   0  0  0  0  0  0  0  0  0  0  0  0
   -3.4974   -1.8305    0.0000 C   0  0  0  0  0  0  0  0  0  0  0  0
   -2.2997   -2.7335    0.0000 C   0  0  0  0  0  0  0  0  0  0  0  0
   -2.1694   -4.2279    0.0000 C   0  0  0  0  0  0  0  0  0  0  0  0
   -0.8101   -4.8622    0.0000 C   0  0  0  0  0  0  0  0  0  0  0  0
    0.4189   -4.0022    0.0000 C   0  0  0  0  0  0  0  0  0  0  0  0
    0.2886   -2.5079    0.0000 C   0  0  0  0  0  0  0  0  0  0  0  0
    1.5176   -1.6479    0.0000 C   0  0  0  0  0  0  0  0  0  0  0  0
    2.8768   -2.2822    0.0000 C   0  0  0  0  0  0  0  0  0  0  0  0
    4.1058   -1.4222    0.0000 C   0  0  0  0  0  0  0  0  0  0  0  0
    3.9755    0.0722    0.0000 C   0  0  0  0  0  0  0  0  0  0  0  0
    5.2045    0.9322    0.0000 N   0  0  0  0  0  0  0  0  0  0  0  0
    6.5638    0.2978    0.0000 C   0  0  0  0  0  0  0  0  0  0  0  0
    7.7928    1.1578    0.0000 C   0  0  0  0  0  0  0  0  0  0  0  0
    7.6625    2.6522    0.0000 N   0  0  0  0  0  0  0  0  0  0  0  0
    6.3032    3.2865    0.0000 C   0  0  0  0  0  0  0  0  0  0  0  0
    5.0742    2.4265    0.0000 C   0  0  0  0  0  0  0  0  0  0  0  0
    2.6163    0.7065    0.0000 C   0  0  0  0  0  0  0  0  0  0  0  0
    1.3873   -0.1535    0.0000 C   0  0  0  0  0  0  0  0  0  0  0  0
   -1.0707   -1.8735    0.0000 C   0  0  0  0  0  0  0  0  0  0  0  0
   -1.5088   -0.4390    0.0000 C   0  0  0  0  0  0  0  0  0  0  0  0
   -0.6057    0.7587    0.0000 O   0  0  0  0  0  0  0  0  0  0  0  0
   -5.3629    0.6863    0.0000 C   0  0  0  0  0  0  0  0  0  0  0  0
   -5.9972   -0.6729    0.0000 O   0  0  0  0  0  0  0  0  0  0  0  0
   -6.2229    1.9153    0.0000 N   0  0  0  0  0  0  0  0  0  0  0  0
  1  2  2  0
  2  3  1  0
  3  4  1  0
  4  5  1  0
  5  6  1  0
  6  7  1  0
  7  8  1  0
  8  9  1  0
  9 10  2  0
 10 11  1  0
 11 12  2  0
 12 13  1  0
 13 14  1  0
 14 15  2  0
 15 16  1  0
 16 17  1  0
 17 18  1  0
 18 19  1  0
 19 20  1  0
 20 21  1  0
 21 22  1  0
 16 23  2  0
 23 24  1  0
 12 25  1  0
 25 26  1  0
 26 27  2  0
  5 28  1  0
 28 29  2  0
 28 30  1  0
 30  2  1  0
 26  6  1  0
 25  8  2  0
 24 13  2  0
 22 17  1  0
M  END
>  <Code>  (17) 
RW_72

>  <Molecular_Formula>  (17) 
C23H24N4O3

>  <MW>  (17) 
404.47

>  <CAS>  (17) 
-

>  <Purity>  (17) 
>=98% (HPLC)

>  <Quality>  (17) 
无菌; 无内毒素; 无核酸酶; 优先细胞培养级别 (sterile; endotoxin-free; nuclease-free; cell-culture grade preferred)

>  <InChIKey>  (17) 
JIMGBDVCJBOURH-UHFFFAOYSA-N

>  <Role>  (17) 
candidate

$$$$
RW_672
     RDKit          2D

 31 35  0  0  0  0  0  0  0  0999 V2000
    1.4863   -3.3414    0.0000 C   0  0  0  0  0  0  0  0  0  0  0  0
    0.4640   -2.2438    0.0000 C   0  0  0  0  0  0  0  0  0  0  0  0
   -0.9978   -2.5803    0.0000 C   0  0  0  0  0  0  0  0  0  0  0  0
   -2.0201   -1.4827    0.0000 C   0  0  0  0  0  0  0  0  0  0  0  0
   -1.5807   -0.0485    0.0000 C   0  0  0  0  0  0  0  0  0  0  0  0
   -0.1189    0.2880    0.0000 C   0  0  0  0  0  0  0  0  0  0  0  0
    0.9034   -0.8096    0.0000 C   0  0  0  0  0  0  0  0  0  0  0  0
    2.3652   -0.4731    0.0000 C   0  0  0  0  0  0  0  0  0  0  0  0
    3.3875   -1.5707    0.0000 C   0  0  0  0  0  0  0  0  0  0  0  0
    4.8493   -1.2342    0.0000 C   0  0  0  0  0  0  0  0  0  0  0  0
    5.2887    0.2000    0.0000 C   0  0  0  0  0  0  0  0  0  0  0  0
    6.7505    0.5366    0.0000 N   0  0  0  0  0  0  0  0  0  0  0  0
    7.7728   -0.5611    0.0000 C   0  0  0  0  0  0  0  0  0  0  0  0
    9.2346   -0.2245    0.0000 C   0  0  0  0  0  0  0  0  0  0  0  0
    9.6740    1.2096    0.0000 N   0  0  0  0  0  0  0  0  0  0  0  0
    8.6517    2.3073    0.0000 C   0  0  0  0  0  0  0  0  0  0  0  0
    7.1899    1.9708    0.0000 C   0  0  0  0  0  0  0  0  0  0  0  0
    4.2664    1.2977    0.0000 C   0  0  0  0  0  0  0  0  0  0  0  0
    2.8046    0.9611    0.0000 C   0  0  0  0  0  0  0  0  0  0  0  0
   -2.8089    0.8126    0.0000 C   0  0  0  0  0  0  0  0  0  0  0  0
   -2.8341    2.3124    0.0000 O   0  0  0  0  0  0  0  0  0  0  0  0
   -4.0074   -0.0894    0.0000 N   0  0  0  0  0  0  0  0  0  0  0  0
   -5.4416    0.3500    0.0000 C   0  0  0  0  0  0  0  0  0  0  0  0
   -5.7781    1.8118    0.0000 C   0  0  0  0  0  0  0  0  0  0  0  0
   -7.2123    2.2512    0.0000 C   0  0  0  0  0  0  0  0  0  0  0  0
   -8.3099    1.2289    0.0000 C   0  0  0  0  0  0  0  0  0  0  0  0
   -9.7441    1.6683    0.0000 O   0  0  0  0  0  0  0  0  0  0  0  0
   -7.9734   -0.2329    0.0000 N   0  0  0  0  0  0  0  0  0  0  0  0
   -6.5392   -0.6723    0.0000 C   0  0  0  0  0  0  0  0  0  0  0  0
   -6.2027   -2.1340    0.0000 O   0  0  0  0  0  0  0  0  0  0  0  0
   -3.5199   -1.5080    0.0000 C   0  0  0  0  0  0  0  0  0  0  0  0
  1  2  1  0
  2  3  2  0
  3  4  1  0
  4  5  2  0
  5  6  1  0
  6  7  2  0
  7  8  1  0
  8  9  1  0
  9 10  2  0
 10 11  1  0
 11 12  1  0
 12 13  1  0
 13 14  1  0
 14 15  1  0
 15 16  1  0
 16 17  1  0
 11 18  2  0
 18 19  1  0
  5 20  1  0
 20 21  2  0
 20 22  1  0
 22 23  1  0
 23 24  1  0
 24 25  1  0
 25 26  1  0
 26 27  2  0
 26 28  1  0
 28 29  1  0
 29 30  2  0
 22 31  1  0
  7  2  1  0
 19  8  2  0
 29 23  1  0
 31  4  1  0
 17 12  1  0
M  END
>  <Code>  (18) 
RW_672

>  <Molecular_Formula>  (18) 
C24H26N4O3

>  <MW>  (18) 
418.5

>  <CAS>  (18) 
-

>  <Purity>  (18) 
>=98% (HPLC)

>  <Quality>  (18) 
无菌; 无内毒素; 无核酸酶; 优先细胞培养级别 (sterile; endotoxin-free; nuclease-free; cell-culture grade preferred)

>  <InChIKey>  (18) 
KNVLAWDRVDHHPB-UHFFFAOYSA-N

>  <Role>  (18) 
candidate

$$$$
TZ_6
     RDKit          2D

 21 23  0  0  0  0  0  0  0  0999 V2000
   -5.1431   -2.6396    0.0000 C   0  0  0  0  0  0  0  0  0  0  0  0
   -3.7270   -2.1450    0.0000 C   0  0  0  0  0  0  0  0  0  0  0  0
   -3.4473   -0.6713    0.0000 C   0  0  0  0  0  0  0  0  0  0  0  0
   -4.5838    0.3078    0.0000 C   0  0  0  0  0  0  0  0  0  0  0  0
   -4.3041    1.7815    0.0000 C   0  0  0  0  0  0  0  0  0  0  0  0
   -2.8880    2.2761    0.0000 C   0  0  0  0  0  0  0  0  0  0  0  0
   -1.7516    1.2970    0.0000 C   0  0  0  0  0  0  0  0  0  0  0  0
   -2.0312   -0.1767    0.0000 C   0  0  0  0  0  0  0  0  0  0  0  0
   -0.7161   -0.8980    0.0000 C   0  0  0  0  0  0  0  0  0  0  0  0
   -0.5267   -2.3860    0.0000 O   0  0  0  0  0  0  0  0  0  0  0  0
    0.3764    0.1298    0.0000 N   0  0  0  0  0  0  0  0  0  0  0  0
    1.8501   -0.1499    0.0000 C   0  0  0  0  0  0  0  0  0  0  0  0
    2.3447   -1.5660    0.0000 C   0  0  0  0  0  0  0  0  0  0  0  0
    3.8184   -1.8457    0.0000 C   0  0  0  0  0  0  0  0  0  0  0  0
    4.7975   -0.7092    0.0000 C   0  0  0  0  0  0  0  0  0  0  0  0
    6.2712   -0.9889    0.0000 O   0  0  0  0  0  0  0  0  0  0  0  0
    4.3028    0.7069    0.0000 N   0  0  0  0  0  0  0  0  0  0  0  0
    2.8291    0.9865    0.0000 C   0  0  0  0  0  0  0  0  0  0  0  0
    2.3345    2.4026    0.0000 O   0  0  0  0  0  0  0  0  0  0  0  0
   -0.2636    1.4864    0.0000 C   0  0  0  0  0  0  0  0  0  0  0  0
    0.4578    2.8016    0.0000 O   0  0  0  0  0  0  0  0  0  0  0  0
  1  2  1  0
  2  3  1  0
  3  4  1  0
  4  5  2  0
  5  6  1  0
  6  7  2  0
  7  8  1  0
  8  9  1  0
  9 10  2  0
  9 11  1  0
 11 12  1  0
 12 13  1  0
 13 14  1  0
 14 15  1  0
 15 16  2  0
 15 17  1  0
 17 18  1  0
 18 19  2  0
 11 20  1  0
 20 21  2  0
  8  3  2  0
 18 12  1  0
 20  7  1  0
M  END
>  <Code>  (19) 
TZ_6

>  <Molecular_Formula>  (19) 
C15H14N2O4

>  <MW>  (19) 
286.29

>  <CAS>  (19) 
244057-33-8

>  <Purity>  (19) 
>=98% (HPLC)

>  <Quality>  (19) 
无菌; 无内毒素; 无核酸酶; 优先细胞培养级别 (sterile; endotoxin-free; nuclease-free; cell-culture grade preferred)

>  <InChIKey>  (19) 
FAZWECWNUTULOK-UHFFFAOYSA-N

>  <Role>  (19) 
candidate

$$$$
TZ_118
     RDKit          2D

 23 25  0  0  0  0  0  0  0  0999 V2000
   -6.6267    0.7020    0.0000 C   0  0  0  0  0  0  0  0  0  0  0  0
   -5.4747   -0.2587    0.0000 O   0  0  0  0  0  0  0  0  0  0  0  0
   -4.0667    0.2587    0.0000 C   0  0  0  0  0  0  0  0  0  0  0  0
   -3.8108    1.7367    0.0000 C   0  0  0  0  0  0  0  0  0  0  0  0
   -2.4028    2.2540    0.0000 C   0  0  0  0  0  0  0  0  0  0  0  0
   -1.2508    1.2933    0.0000 C   0  0  0  0  0  0  0  0  0  0  0  0
   -1.5067   -0.1847    0.0000 C   0  0  0  0  0  0  0  0  0  0  0  0
   -2.9147   -0.7020    0.0000 C   0  0  0  0  0  0  0  0  0  0  0  0
   -3.1706   -2.1800    0.0000 C   0  0  0  0  0  0  0  0  0  0  0  0
   -3.4266   -3.6580    0.0000 N   0  0  0  0  0  0  0  0  0  0  0  0
   -0.1802   -0.8848    0.0000 C   0  0  0  0  0  0  0  0  0  0  0  0
    0.0331   -2.3696    0.0000 O   0  0  0  0  0  0  0  0  0  0  0  0
    0.8956    0.1605    0.0000 N   0  0  0  0  0  0  0  0  0  0  0  0
    2.3736   -0.0955    0.0000 C   0  0  0  0  0  0  0  0  0  0  0  0
    2.8910   -1.5034    0.0000 C   0  0  0  0  0  0  0  0  0  0  0  0
    4.3690   -1.7594    0.0000 C   0  0  0  0  0  0  0  0  0  0  0  0
    5.3296   -0.6074    0.0000 C   0  0  0  0  0  0  0  0  0  0  0  0
    6.8077   -0.8633    0.0000 O   0  0  0  0  0  0  0  0  0  0  0  0
    4.8123    0.8006    0.0000 N   0  0  0  0  0  0  0  0  0  0  0  0
    3.3343    1.0566    0.0000 C   0  0  0  0  0  0  0  0  0  0  0  0
    2.8170    2.4645    0.0000 O   0  0  0  0  0  0  0  0  0  0  0  0
    0.2340    1.5067    0.0000 C   0  0  0  0  0  0  0  0  0  0  0  0
    0.9341    2.8332    0.0000 O   0  0  0  0  0  0  0  0  0  0  0  0
  1  2  1  0
  2  3  1  0
  3  4  1  0
  4  5  2  0
  5  6  1  0
  6  7  2  0
  7  8  1  0
  8  9  1  0
  9 10  3  0
  7 11  1  0
 11 12  2  0
 11 13  1  0
 13 14  1  0
 14 15  1  0
 15 16  1  0
 16 17  1  0
 17 18  2  0
 17 19  1  0
 19 20  1  0
 20 21  2  0
 13 22  1  0
 22 23  2  0
  8  3  2  0
 20 14  1  0
 22  6  1  0
M  END
>  <Code>  (20) 
TZ_118

>  <Molecular_Formula>  (20) 
C15H11N3O5

>  <MW>  (20) 
313.27

>  <CAS>  (20) 
-

>  <Purity>  (20) 
>=98% (HPLC)

>  <Quality>  (20) 
无菌; 无内毒素; 无核酸酶; 优先细胞培养级别 (sterile; endotoxin-free; nuclease-free; cell-culture grade preferred)

>  <InChIKey>  (20) 
BKXHWCINNYDWKN-UHFFFAOYSA-N

>  <Role>  (20) 
candidate

$$$$
Z6466608628_positive_control
     RDKit          2D

 30 34  0  0  0  0  0  0  0  0999 V2000
   -6.1770    4.7740    0.0000 O   0  0  0  0  0  0  0  0  0  0  0  0
   -5.3507    3.5221    0.0000 C   0  0  0  0  0  0  0  0  0  0  0  0
   -3.8534    3.6118    0.0000 C   0  0  0  0  0  0  0  0  0  0  0  0
   -3.0271    2.3599    0.0000 C   0  0  0  0  0  0  0  0  0  0  0  0
   -3.6981    1.0183    0.0000 C   0  0  0  0  0  0  0  0  0  0  0  0
   -2.8718   -0.2335    0.0000 N   0  0  0  0  0  0  0  0  0  0  0  0
   -1.3733   -0.3009    0.0000 C   0  0  0  0  0  0  0  0  0  0  0  0
   -0.9743   -1.7468    0.0000 C   0  0  0  0  0  0  0  0  0  0  0  0
   -2.2261   -2.5731    0.0000 C   0  0  0  0  0  0  0  0  0  0  0  0
   -2.1365   -4.0704    0.0000 C   0  0  0  0  0  0  0  0  0  0  0  0
   -0.7949   -4.7415    0.0000 C   0  0  0  0  0  0  0  0  0  0  0  0
    0.4570   -3.9151    0.0000 C   0  0  0  0  0  0  0  0  0  0  0  0
    0.3673   -2.4178    0.0000 C   0  0  0  0  0  0  0  0  0  0  0  0
    1.6192   -1.5915    0.0000 C   0  0  0  0  0  0  0  0  0  0  0  0
    2.9607   -2.2625    0.0000 C   0  0  0  0  0  0  0  0  0  0  0  0
    4.2126   -1.4362    0.0000 C   0  0  0  0  0  0  0  0  0  0  0  0
    4.1229    0.0611    0.0000 C   0  0  0  0  0  0  0  0  0  0  0  0
    5.3748    0.8874    0.0000 N   0  0  0  0  0  0  0  0  0  0  0  0
    6.7163    0.2164    0.0000 C   0  0  0  0  0  0  0  0  0  0  0  0
    7.9682    1.0428    0.0000 C   0  0  0  0  0  0  0  0  0  0  0  0
    7.8786    2.5401    0.0000 N   0  0  0  0  0  0  0  0  0  0  0  0
    6.5370    3.2111    0.0000 C   0  0  0  0  0  0  0  0  0  0  0  0
    5.2851    2.3848    0.0000 C   0  0  0  0  0  0  0  0  0  0  0  0
    2.7814    0.7321    0.0000 C   0  0  0  0  0  0  0  0  0  0  0  0
    1.5295   -0.0942    0.0000 C   0  0  0  0  0  0  0  0  0  0  0  0
   -3.3989   -1.6379    0.0000 C   0  0  0  0  0  0  0  0  0  0  0  0
   -4.8448   -2.0369    0.0000 O   0  0  0  0  0  0  0  0  0  0  0  0
   -5.1954    0.9287    0.0000 C   0  0  0  0  0  0  0  0  0  0  0  0
   -5.8664   -0.4129    0.0000 O   0  0  0  0  0  0  0  0  0  0  0  0
   -6.0217    2.1806    0.0000 N   0  0  0  0  0  0  0  0  0  0  0  0
  1  2  2  0
  2  3  1  0
  3  4  1  0
  4  5  1  0
  5  6  1  0
  6  7  1  0
  7  8  1  0
  8  9  2  0
  9 10  1  0
 10 11  2  0
 11 12  1  0
 12 13  2  0
 13 14  1  0
 14 15  1  0
 15 16  2  0
 16 17  1  0
 17 18  1  0
 18 19  1  0
 19 20  1  0
 20 21  1  0
 21 22  1  0
 22 23  1  0
 17 24  2  0
 24 25  1  0
  9 26  1  0
 26 27  2  0
  5 28  1  0
 28 29  2  0
 28 30  1  0
 30  2  1  0
 26  6  1  0
 13  8  1  0
 25 14  2  0
 23 18  1  0
M  END
>  <Code>  (21) 
Z6466608628_positive_control

>  <Molecular_Formula>  (21) 
C23H24N4O3

>  <MW>  (21) 
404.47

>  <CAS>  (21) 
2869183-63-9

>  <Purity>  (21) 
>=98% (HPLC)

>  <Quality>  (21) 
无菌; 无内毒素; 无核酸酶; 优先细胞培养级别 (sterile; endotoxin-free; nuclease-free; cell-culture grade preferred)

>  <InChIKey>  (21) 
KMGAXUJZURDCDU-UHFFFAOYSA-N

>  <Role>  (21) 
control

$$$$
TM-04-064-02_positive_control
     RDKit          2D

 43 47  0  0  0  0  0  0  0  0999 V2000
   -7.6028    1.8288    0.0000 O   0  0  0  0  0  0  0  0  0  0  0  0
   -7.7739    0.3386    0.0000 C   0  0  0  0  0  0  0  0  0  0  0  0
   -6.5689   -0.5547    0.0000 N   0  0  0  0  0  0  0  0  0  0  0  0
   -5.1928    0.0422    0.0000 C   0  0  0  0  0  0  0  0  0  0  0  0
   -3.9878   -0.8511    0.0000 C   0  0  0  0  0  0  0  0  0  0  0  0
   -2.6117   -0.2542    0.0000 C   0  0  0  0  0  0  0  0  0  0  0  0
   -1.4067   -1.1475    0.0000 C   0  0  0  0  0  0  0  0  0  0  0  0
   -0.0306   -0.5506    0.0000 C   0  0  0  0  0  0  0  0  0  0  0  0
    1.1744   -1.4439    0.0000 C   0  0  0  0  0  0  0  0  0  0  0  0
    2.5505   -0.8471    0.0000 C   0  0  0  0  0  0  0  0  0  0  0  0
    3.7555   -1.7404    0.0000 C   0  0  0  0  0  0  0  0  0  0  0  0
    5.1317   -1.1435    0.0000 N   0  0  0  0  0  0  0  0  0  0  0  0
    6.3366   -2.0368    0.0000 C   0  0  0  0  0  0  0  0  0  0  0  0
    6.1655   -3.5270    0.0000 C   0  0  0  0  0  0  0  0  0  0  0  0
    7.3705   -4.4203    0.0000 C   0  0  0  0  0  0  0  0  0  0  0  0
    8.7466   -3.8234    0.0000 C   0  0  0  0  0  0  0  0  0  0  0  0
    8.9178   -2.3332    0.0000 C   0  0  0  0  0  0  0  0  0  0  0  0
    7.7128   -1.4399    0.0000 C   0  0  0  0  0  0  0  0  0  0  0  0
    8.1900   -0.0178    0.0000 C   0  0  0  0  0  0  0  0  0  0  0  0
    9.6899   -0.0323    0.0000 N   0  0  0  0  0  0  0  0  0  0  0  0
   10.1397   -1.4633    0.0000 C   0  0  0  0  0  0  0  0  0  0  0  0
   11.5618   -1.9405    0.0000 O   0  0  0  0  0  0  0  0  0  0  0  0
   10.5832    1.1727    0.0000 C   0  0  0  0  0  0  0  0  0  0  0  0
   12.0734    1.0016    0.0000 C   0  0  0  0  0  0  0  0  0  0  0  0
   12.9668    2.2066    0.0000 C   0  0  0  0  0  0  0  0  0  0  0  0
   12.3699    3.5827    0.0000 C   0  0  0  0  0  0  0  0  0  0  0  0
   10.8797    3.7538    0.0000 N   0  0  0  0  0  0  0  0  0  0  0  0
    9.9864    2.5488    0.0000 C   0  0  0  0  0  0  0  0  0  0  0  0
    8.4961    2.7200    0.0000 O   0  0  0  0  0  0  0  0  0  0  0  0
   13.2632    4.7877    0.0000 O   0  0  0  0  0  0  0  0  0  0  0  0
    7.3200    1.2041    0.0000 O   0  0  0  0  0  0  0  0  0  0  0  0
   -9.1500   -0.2583    0.0000 C   0  0  0  0  0  0  0  0  0  0  0  0
  -10.3550    0.6351    0.0000 C   0  0  0  0  0  0  0  0  0  0  0  0
  -11.7311    0.0382    0.0000 N   0  0  0  0  0  0  0  0  0  0  0  0
  -12.0571   -1.4260    0.0000 C   0  0  0  0  0  0  0  0  0  0  0  0
  -13.5503   -1.5684    0.0000 N   0  0  0  0  0  0  0  0  0  0  0  0
  -14.1472   -0.1923    0.0000 C   0  0  0  0  0  0  0  0  0  0  0  0
  -15.5693    0.2849    0.0000 C   0  0  0  0  0  0  0  0  0  0  0  0
  -15.8670    1.7551    0.0000 N   0  0  0  0  0  0  0  0  0  0  0  0
  -14.7427    2.7480    0.0000 C   0  0  0  0  0  0  0  0  0  0  0  0
  -13.3206    2.2708    0.0000 N   0  0  0  0  0  0  0  0  0  0  0  0
  -13.0229    0.8006    0.0000 C   0  0  0  0  0  0  0  0  0  0  0  0
  -16.6936   -0.7080    0.0000 N   0  0  0  0  0  0  0  0  0  0  0  0
  1  2  2  0
  2  3  1  0
  3  4  1  0
  4  5  1  0
  5  6  1  0
  6  7  1  0
  7  8  1  0
  8  9  1  0
  9 10  1  0
 10 11  1  0
 11 12  1  0
 12 13  1  0
 13 14  1  0
 14 15  2  0
 15 16  1  0
 16 17  2  0
 17 18  1  0
 18 19  1  0
 19 20  1  0
 20 21  1  0
 21 22  2  0
 20 23  1  0
 23 24  1  0
 24 25  1  0
 25 26  1  0
 26 27  1  0
 27 28  1  0
 28 29  2  0
 26 30  2  0
 19 31  2  0
  2 32  1  0
 32 33  1  0
 33 34  1  0
 34 35  1  0
 35 36  2  0
 36 37  1  0
 37 38  2  0
 38 39  1  0
 39 40  2  0
 40 41  1  0
 41 42  2  0
 38 43  1  0
 18 13  2  0
 21 17  1  0
 28 23  1  0
 42 34  1  0
 42 37  1  0
M  END
>  <Code>  (22) 
TM-04-064-02_positive_control

>  <Molecular_Formula>  (22) 
C29H35N9O5

>  <MW>  (22) 
589.66

>  <CAS>  (22) 
-

>  <Purity>  (22) 
>=98% (HPLC)

>  <Quality>  (22) 
无菌; 无内毒素; 无核酸酶; 优先细胞培养级别 (sterile; endotoxin-free; nuclease-free; cell-culture grade preferred)

>  <InChIKey>  (22) 
CKDWGAXWKUCVPQ-UHFFFAOYSA-N

>  <Role>  (22) 
control

$$$$
negctrl_no_glutarimide
     RDKit          2D

 23 26  0  0  0  0  0  0  0  0999 V2000
   -4.2463    3.5387    0.0000 C   0  0  0  0  0  0  0  0  0  0  0  0
   -3.9308    2.0723    0.0000 N   0  0  0  0  0  0  0  0  0  0  0  0
   -2.5589    1.4656    0.0000 C   0  0  0  0  0  0  0  0  0  0  0  0
   -2.7120   -0.0266    0.0000 C   0  0  0  0  0  0  0  0  0  0  0  0
   -4.1785   -0.3421    0.0000 C   0  0  0  0  0  0  0  0  0  0  0  0
   -4.6385   -1.7698    0.0000 C   0  0  0  0  0  0  0  0  0  0  0  0
   -3.6320   -2.8820    0.0000 C   0  0  0  0  0  0  0  0  0  0  0  0
   -2.1656   -2.5665    0.0000 C   0  0  0  0  0  0  0  0  0  0  0  0
   -1.7056   -1.1388    0.0000 C   0  0  0  0  0  0  0  0  0  0  0  0
   -0.2391   -0.8233    0.0000 C   0  0  0  0  0  0  0  0  0  0  0  0
    0.7673   -1.9355    0.0000 C   0  0  0  0  0  0  0  0  0  0  0  0
    2.2338   -1.6200    0.0000 C   0  0  0  0  0  0  0  0  0  0  0  0
    2.6938   -0.1923    0.0000 C   0  0  0  0  0  0  0  0  0  0  0  0
    4.1602    0.1232    0.0000 N   0  0  0  0  0  0  0  0  0  0  0  0
    5.1667   -0.9890    0.0000 C   0  0  0  0  0  0  0  0  0  0  0  0
    6.6331   -0.6735    0.0000 C   0  0  0  0  0  0  0  0  0  0  0  0
    7.0931    0.7543    0.0000 N   0  0  0  0  0  0  0  0  0  0  0  0
    6.0866    1.8665    0.0000 C   0  0  0  0  0  0  0  0  0  0  0  0
    4.6202    1.5510    0.0000 C   0  0  0  0  0  0  0  0  0  0  0  0
    1.6873    0.9200    0.0000 C   0  0  0  0  0  0  0  0  0  0  0  0
    0.2208    0.6044    0.0000 C   0  0  0  0  0  0  0  0  0  0  0  0
   -4.9317    0.9551    0.0000 C   0  0  0  0  0  0  0  0  0  0  0  0
   -6.4239    1.1082    0.0000 O   0  0  0  0  0  0  0  0  0  0  0  0
  1  2  1  0
  2  3  1  0
  3  4  1  0
  4  5  2  0
  5  6  1  0
  6  7  2  0
  7  8  1  0
  8  9  2  0
  9 10  1  0
 10 11  1  0
 11 12  2  0
 12 13  1  0
 13 14  1  0
 14 15  1  0
 15 16  1  0
 16 17  1  0
 17 18  1  0
 18 19  1  0
 13 20  2  0
 20 21  1  0
  5 22  1  0
 22 23  2  0
 22  2  1  0
  9  4  1  0
 21 10  2  0
 19 14  1  0
M  END
>  <Code>  (23) 
negctrl_no_glutarimide

>  <Molecular_Formula>  (23) 
C19H21N3O

>  <MW>  (23) 
307.4

>  <CAS>  (23) 
-

>  <Purity>  (23) 
>=98% (HPLC)

>  <Quality>  (23) 
无菌; 无内毒素; 无核酸酶; 优先细胞培养级别 (sterile; endotoxin-free; nuclease-free; cell-culture grade preferred)

>  <InChIKey>  (23) 
XEFJEGLFKNQLMH-UHFFFAOYSA-N

>  <Role>  (23) 
control

$$$$
negctrl_no_ppil4_arm
     RDKit          2D

 18 20  0  0  0  0  0  0  0  0999 V2000
   -5.9040    0.1878    0.0000 O   0  0  0  0  0  0  0  0  0  0  0  0
   -4.4048    0.1395    0.0000 C   0  0  0  0  0  0  0  0  0  0  0  0
   -3.6133    1.4138    0.0000 C   0  0  0  0  0  0  0  0  0  0  0  0
   -2.1141    1.3655    0.0000 C   0  0  0  0  0  0  0  0  0  0  0  0
   -1.4063    0.0430    0.0000 C   0  0  0  0  0  0  0  0  0  0  0  0
    0.0929   -0.0053    0.0000 N   0  0  0  0  0  0  0  0  0  0  0  0
    0.9351   -1.2466    0.0000 C   0  0  0  0  0  0  0  0  0  0  0  0
    2.3758   -0.8292    0.0000 C   0  0  0  0  0  0  0  0  0  0  0  0
    3.6501   -1.6207    0.0000 C   0  0  0  0  0  0  0  0  0  0  0  0
    4.9726   -0.9129    0.0000 C   0  0  0  0  0  0  0  0  0  0  0  0
    5.0209    0.5863    0.0000 C   0  0  0  0  0  0  0  0  0  0  0  0
    3.7466    1.3778    0.0000 C   0  0  0  0  0  0  0  0  0  0  0  0
    2.4241    0.6700    0.0000 C   0  0  0  0  0  0  0  0  0  0  0  0
    1.0132    1.1792    0.0000 C   0  0  0  0  0  0  0  0  0  0  0  0
    0.5958    2.6200    0.0000 O   0  0  0  0  0  0  0  0  0  0  0  0
   -2.1977   -1.2313    0.0000 C   0  0  0  0  0  0  0  0  0  0  0  0
   -1.4899   -2.5538    0.0000 O   0  0  0  0  0  0  0  0  0  0  0  0
   -3.6970   -1.1830    0.0000 N   0  0  0  0  0  0  0  0  0  0  0  0
  1  2  2  0
  2  3  1  0
  3  4  1  0
  4  5  1  0
  5  6  1  0
  6  7  1  0
  7  8  1  0
  8  9  2  0
  9 10  1  0
 10 11  2  0
 11 12  1  0
 12 13  2  0
 13 14  1  0
 14 15  2  0
  5 16  1  0
 16 17  2  0
 16 18  1  0
 18  2  1  0
 14  6  1  0
 13  8  1  0
M  END
>  <Code>  (24) 
negctrl_no_ppil4_arm

>  <Molecular_Formula>  (24) 
C13H12N2O3

>  <MW>  (24) 
244.25

>  <CAS>  (24) 
26581-81-7

>  <Purity>  (24) 
>=98% (HPLC)

>  <Quality>  (24) 
无菌; 无内毒素; 无核酸酶; 优先细胞培养级别 (sterile; endotoxin-free; nuclease-free; cell-culture grade preferred)

>  <InChIKey>  (24) 
WENKGSGGXGQHSH-UHFFFAOYSA-N

>  <Role>  (24) 
control

$$$$
negctrl_no_crbn_ppil4_arm
     RDKit          2D

 12 13  0  0  0  0  0  0  0  0999 V2000
   -0.2196   -2.5040    0.0000 C   0  0  0  0  0  0  0  0  0  0  0  0
    1.2260   -2.1034    0.0000 O   0  0  0  0  0  0  0  0  0  0  0  0
    1.6018   -0.6513    0.0000 C   0  0  0  0  0  0  0  0  0  0  0  0
    2.9976   -0.1018    0.0000 C   0  0  0  0  0  0  0  0  0  0  0  0
    2.9063    1.3954    0.0000 S   0  0  0  0  0  0  0  0  0  0  0  0
    1.4542    1.7713    0.0000 C   0  0  0  0  0  0  0  0  0  0  0  0
    0.6480    0.5064    0.0000 C   0  0  0  0  0  0  0  0  0  0  0  0
   -0.8493    0.4151    0.0000 C   0  0  0  0  0  0  0  0  0  0  0  0
   -1.6555   -0.8498    0.0000 C   0  0  0  0  0  0  0  0  0  0  0  0
   -3.1076   -0.4739    0.0000 N   0  0  0  0  0  0  0  0  0  0  0  0
   -3.1989    1.0233    0.0000 N   0  0  0  0  0  0  0  0  0  0  0  0
   -1.8031    1.5727    0.0000 N   0  0  0  0  0  0  0  0  0  0  0  0
  1  2  1  0
  2  3  1  0
  3  4  2  0
  4  5  1  0
  5  6  1  0
  6  7  2  0
  7  8  1  0
  8  9  2  0
  9 10  1  0
 10 11  1  0
 11 12  2  0
  7  3  1  0
 12  8  1  0
M  END
>  <Code>  (25) 
negctrl_no_crbn_ppil4_arm

>  <Molecular_Formula>  (25) 
C7H7N3OS

>  <MW>  (25) 
181.22

>  <CAS>  (25) 
-

>  <Purity>  (25) 
>=98% (HPLC)

>  <Quality>  (25) 
无菌; 无内毒素; 无核酸酶; 优先细胞培养级别 (sterile; endotoxin-free; nuclease-free; cell-culture grade preferred)

>  <InChIKey>  (25) 
CMPAJFIBFWYECR-UHFFFAOYSA-N

>  <Role>  (25) 
control

$$$$
